
---------- Begin Simulation Statistics ----------
sim_seconds                                  0.014500                       # Number of seconds simulated
sim_ticks                                 14499629500                       # Number of ticks simulated
final_tick                                14499629500                       # Number of ticks from beginning of simulation (restored from checkpoints and never reset)
sim_freq                                 1000000000000                       # Frequency of simulated ticks
host_inst_rate                                 146728                       # Simulator instruction rate (inst/s)
host_op_rate                                   192921                       # Simulator op (including micro ops) rate (op/s)
host_tick_rate                               82023707                       # Simulator tick rate (ticks/s)
host_mem_usage                                 670572                       # Number of bytes of host memory used
host_seconds                                   176.77                       # Real time elapsed on the host
sim_insts                                    25937726                       # Number of instructions simulated
sim_ops                                      34103287                       # Number of ops (including micro ops) simulated
system.clk_domain.voltage_domain.voltage            1                       # Voltage in Volts
system.clk_domain.clock                           500                       # Clock period in ticks
system.mem_ctrl.pwrStateResidencyTicks::UNDEFINED  14499629500                       # Cumulative time (in ticks) in various power states
system.mem_ctrl.bytes_read::.cpu.inst           30976                       # Number of bytes read from this memory
system.mem_ctrl.bytes_read::.cpu.data           18176                       # Number of bytes read from this memory
system.mem_ctrl.bytes_read::total               49152                       # Number of bytes read from this memory
system.mem_ctrl.bytes_inst_read::.cpu.inst        30976                       # Number of instructions bytes read from this memory
system.mem_ctrl.bytes_inst_read::total          30976                       # Number of instructions bytes read from this memory
system.mem_ctrl.num_reads::.cpu.inst              484                       # Number of read requests responded to by this memory
system.mem_ctrl.num_reads::.cpu.data              284                       # Number of read requests responded to by this memory
system.mem_ctrl.num_reads::total                  768                       # Number of read requests responded to by this memory
system.mem_ctrl.bw_read::.cpu.inst            2136330                       # Total read bandwidth from this memory (bytes/s)
system.mem_ctrl.bw_read::.cpu.data            1253549                       # Total read bandwidth from this memory (bytes/s)
system.mem_ctrl.bw_read::total                3389880                       # Total read bandwidth from this memory (bytes/s)
system.mem_ctrl.bw_inst_read::.cpu.inst       2136330                       # Instruction read bandwidth from this memory (bytes/s)
system.mem_ctrl.bw_inst_read::total           2136330                       # Instruction read bandwidth from this memory (bytes/s)
system.mem_ctrl.bw_total::.cpu.inst           2136330                       # Total bandwidth to/from this memory (bytes/s)
system.mem_ctrl.bw_total::.cpu.data           1253549                       # Total bandwidth to/from this memory (bytes/s)
system.mem_ctrl.bw_total::total               3389880                       # Total bandwidth to/from this memory (bytes/s)
system.mem_ctrl.avgPriority_.cpu.inst::samples       484.00                       # Average QoS priority value for accepted requests
system.mem_ctrl.avgPriority_.cpu.data::samples       284.00                       # Average QoS priority value for accepted requests
system.mem_ctrl.priorityMinLatency       0.000000018750                       # per QoS priority minimum request to response latency (s)
system.mem_ctrl.priorityMaxLatency       0.000001099750                       # per QoS priority maximum request to response latency (s)
system.mem_ctrl.numReadWriteTurnArounds             0                       # Number of turnarounds from READ to WRITE
system.mem_ctrl.numWriteReadTurnArounds             0                       # Number of turnarounds from WRITE to READ
system.mem_ctrl.numStayReadState                 1533                       # Number of times bus staying in READ state
system.mem_ctrl.numStayWriteState                   0                       # Number of times bus staying in WRITE state
system.mem_ctrl.readReqs                          768                       # Number of read requests accepted
system.mem_ctrl.writeReqs                           0                       # Number of write requests accepted
system.mem_ctrl.readBursts                        768                       # Number of DRAM read bursts, including those serviced by the write queue
system.mem_ctrl.writeBursts                         0                       # Number of DRAM write bursts, including those merged in the write queue
system.mem_ctrl.bytesReadDRAM                   49152                       # Total number of bytes read from DRAM
system.mem_ctrl.bytesReadWrQ                        0                       # Total number of bytes read from write queue
system.mem_ctrl.bytesWritten                        0                       # Total number of bytes written to DRAM
system.mem_ctrl.bytesReadSys                    49152                       # Total read bytes from the system interface side
system.mem_ctrl.bytesWrittenSys                     0                       # Total written bytes from the system interface side
system.mem_ctrl.servicedByWrQ                       0                       # Number of DRAM read bursts serviced by the write queue
system.mem_ctrl.mergedWrBursts                      0                       # Number of DRAM write bursts merged with an existing one
system.mem_ctrl.neitherReadNorWriteReqs             0                       # Number of requests that are neither read nor write
system.mem_ctrl.perBankRdBursts::0                182                       # Per bank write bursts
system.mem_ctrl.perBankRdBursts::1                 65                       # Per bank write bursts
system.mem_ctrl.perBankRdBursts::2                 27                       # Per bank write bursts
system.mem_ctrl.perBankRdBursts::3                  5                       # Per bank write bursts
system.mem_ctrl.perBankRdBursts::4                  8                       # Per bank write bursts
system.mem_ctrl.perBankRdBursts::5                  6                       # Per bank write bursts
system.mem_ctrl.perBankRdBursts::6                 73                       # Per bank write bursts
system.mem_ctrl.perBankRdBursts::7                 59                       # Per bank write bursts
system.mem_ctrl.perBankRdBursts::8                  0                       # Per bank write bursts
system.mem_ctrl.perBankRdBursts::9                 12                       # Per bank write bursts
system.mem_ctrl.perBankRdBursts::10                10                       # Per bank write bursts
system.mem_ctrl.perBankRdBursts::11                30                       # Per bank write bursts
system.mem_ctrl.perBankRdBursts::12                40                       # Per bank write bursts
system.mem_ctrl.perBankRdBursts::13               104                       # Per bank write bursts
system.mem_ctrl.perBankRdBursts::14               104                       # Per bank write bursts
system.mem_ctrl.perBankRdBursts::15                43                       # Per bank write bursts
system.mem_ctrl.perBankWrBursts::0                  0                       # Per bank write bursts
system.mem_ctrl.perBankWrBursts::1                  0                       # Per bank write bursts
system.mem_ctrl.perBankWrBursts::2                  0                       # Per bank write bursts
system.mem_ctrl.perBankWrBursts::3                  0                       # Per bank write bursts
system.mem_ctrl.perBankWrBursts::4                  0                       # Per bank write bursts
system.mem_ctrl.perBankWrBursts::5                  0                       # Per bank write bursts
system.mem_ctrl.perBankWrBursts::6                  0                       # Per bank write bursts
system.mem_ctrl.perBankWrBursts::7                  0                       # Per bank write bursts
system.mem_ctrl.perBankWrBursts::8                  0                       # Per bank write bursts
system.mem_ctrl.perBankWrBursts::9                  0                       # Per bank write bursts
system.mem_ctrl.perBankWrBursts::10                 0                       # Per bank write bursts
system.mem_ctrl.perBankWrBursts::11                 0                       # Per bank write bursts
system.mem_ctrl.perBankWrBursts::12                 0                       # Per bank write bursts
system.mem_ctrl.perBankWrBursts::13                 0                       # Per bank write bursts
system.mem_ctrl.perBankWrBursts::14                 0                       # Per bank write bursts
system.mem_ctrl.perBankWrBursts::15                 0                       # Per bank write bursts
system.mem_ctrl.numRdRetry                          0                       # Number of times read queue was full causing retry
system.mem_ctrl.numWrRetry                          0                       # Number of times write queue was full causing retry
system.mem_ctrl.totGap                    14499532500                       # Total gap between requests
system.mem_ctrl.readPktSize::0                      0                       # Read request sizes (log2)
system.mem_ctrl.readPktSize::1                      0                       # Read request sizes (log2)
system.mem_ctrl.readPktSize::2                      0                       # Read request sizes (log2)
system.mem_ctrl.readPktSize::3                      0                       # Read request sizes (log2)
system.mem_ctrl.readPktSize::4                      0                       # Read request sizes (log2)
system.mem_ctrl.readPktSize::5                      0                       # Read request sizes (log2)
system.mem_ctrl.readPktSize::6                    768                       # Read request sizes (log2)
system.mem_ctrl.writePktSize::0                     0                       # Write request sizes (log2)
system.mem_ctrl.writePktSize::1                     0                       # Write request sizes (log2)
system.mem_ctrl.writePktSize::2                     0                       # Write request sizes (log2)
system.mem_ctrl.writePktSize::3                     0                       # Write request sizes (log2)
system.mem_ctrl.writePktSize::4                     0                       # Write request sizes (log2)
system.mem_ctrl.writePktSize::5                     0                       # Write request sizes (log2)
system.mem_ctrl.writePktSize::6                     0                       # Write request sizes (log2)
system.mem_ctrl.rdQLenPdf::0                      489                       # What read queue length does an incoming req see
system.mem_ctrl.rdQLenPdf::1                      217                       # What read queue length does an incoming req see
system.mem_ctrl.rdQLenPdf::2                       53                       # What read queue length does an incoming req see
system.mem_ctrl.rdQLenPdf::3                        8                       # What read queue length does an incoming req see
system.mem_ctrl.rdQLenPdf::4                        1                       # What read queue length does an incoming req see
system.mem_ctrl.rdQLenPdf::5                        0                       # What read queue length does an incoming req see
system.mem_ctrl.rdQLenPdf::6                        0                       # What read queue length does an incoming req see
system.mem_ctrl.rdQLenPdf::7                        0                       # What read queue length does an incoming req see
system.mem_ctrl.rdQLenPdf::8                        0                       # What read queue length does an incoming req see
system.mem_ctrl.rdQLenPdf::9                        0                       # What read queue length does an incoming req see
system.mem_ctrl.rdQLenPdf::10                       0                       # What read queue length does an incoming req see
system.mem_ctrl.rdQLenPdf::11                       0                       # What read queue length does an incoming req see
system.mem_ctrl.rdQLenPdf::12                       0                       # What read queue length does an incoming req see
system.mem_ctrl.rdQLenPdf::13                       0                       # What read queue length does an incoming req see
system.mem_ctrl.rdQLenPdf::14                       0                       # What read queue length does an incoming req see
system.mem_ctrl.rdQLenPdf::15                       0                       # What read queue length does an incoming req see
system.mem_ctrl.rdQLenPdf::16                       0                       # What read queue length does an incoming req see
system.mem_ctrl.rdQLenPdf::17                       0                       # What read queue length does an incoming req see
system.mem_ctrl.rdQLenPdf::18                       0                       # What read queue length does an incoming req see
system.mem_ctrl.rdQLenPdf::19                       0                       # What read queue length does an incoming req see
system.mem_ctrl.rdQLenPdf::20                       0                       # What read queue length does an incoming req see
system.mem_ctrl.rdQLenPdf::21                       0                       # What read queue length does an incoming req see
system.mem_ctrl.rdQLenPdf::22                       0                       # What read queue length does an incoming req see
system.mem_ctrl.rdQLenPdf::23                       0                       # What read queue length does an incoming req see
system.mem_ctrl.rdQLenPdf::24                       0                       # What read queue length does an incoming req see
system.mem_ctrl.rdQLenPdf::25                       0                       # What read queue length does an incoming req see
system.mem_ctrl.rdQLenPdf::26                       0                       # What read queue length does an incoming req see
system.mem_ctrl.rdQLenPdf::27                       0                       # What read queue length does an incoming req see
system.mem_ctrl.rdQLenPdf::28                       0                       # What read queue length does an incoming req see
system.mem_ctrl.rdQLenPdf::29                       0                       # What read queue length does an incoming req see
system.mem_ctrl.rdQLenPdf::30                       0                       # What read queue length does an incoming req see
system.mem_ctrl.rdQLenPdf::31                       0                       # What read queue length does an incoming req see
system.mem_ctrl.wrQLenPdf::0                        0                       # What write queue length does an incoming req see
system.mem_ctrl.wrQLenPdf::1                        0                       # What write queue length does an incoming req see
system.mem_ctrl.wrQLenPdf::2                        0                       # What write queue length does an incoming req see
system.mem_ctrl.wrQLenPdf::3                        0                       # What write queue length does an incoming req see
system.mem_ctrl.wrQLenPdf::4                        0                       # What write queue length does an incoming req see
system.mem_ctrl.wrQLenPdf::5                        0                       # What write queue length does an incoming req see
system.mem_ctrl.wrQLenPdf::6                        0                       # What write queue length does an incoming req see
system.mem_ctrl.wrQLenPdf::7                        0                       # What write queue length does an incoming req see
system.mem_ctrl.wrQLenPdf::8                        0                       # What write queue length does an incoming req see
system.mem_ctrl.wrQLenPdf::9                        0                       # What write queue length does an incoming req see
system.mem_ctrl.wrQLenPdf::10                       0                       # What write queue length does an incoming req see
system.mem_ctrl.wrQLenPdf::11                       0                       # What write queue length does an incoming req see
system.mem_ctrl.wrQLenPdf::12                       0                       # What write queue length does an incoming req see
system.mem_ctrl.wrQLenPdf::13                       0                       # What write queue length does an incoming req see
system.mem_ctrl.wrQLenPdf::14                       0                       # What write queue length does an incoming req see
system.mem_ctrl.wrQLenPdf::15                       0                       # What write queue length does an incoming req see
system.mem_ctrl.wrQLenPdf::16                       0                       # What write queue length does an incoming req see
system.mem_ctrl.wrQLenPdf::17                       0                       # What write queue length does an incoming req see
system.mem_ctrl.wrQLenPdf::18                       0                       # What write queue length does an incoming req see
system.mem_ctrl.wrQLenPdf::19                       0                       # What write queue length does an incoming req see
system.mem_ctrl.wrQLenPdf::20                       0                       # What write queue length does an incoming req see
system.mem_ctrl.wrQLenPdf::21                       0                       # What write queue length does an incoming req see
system.mem_ctrl.wrQLenPdf::22                       0                       # What write queue length does an incoming req see
system.mem_ctrl.wrQLenPdf::23                       0                       # What write queue length does an incoming req see
system.mem_ctrl.wrQLenPdf::24                       0                       # What write queue length does an incoming req see
system.mem_ctrl.wrQLenPdf::25                       0                       # What write queue length does an incoming req see
system.mem_ctrl.wrQLenPdf::26                       0                       # What write queue length does an incoming req see
system.mem_ctrl.wrQLenPdf::27                       0                       # What write queue length does an incoming req see
system.mem_ctrl.wrQLenPdf::28                       0                       # What write queue length does an incoming req see
system.mem_ctrl.wrQLenPdf::29                       0                       # What write queue length does an incoming req see
system.mem_ctrl.wrQLenPdf::30                       0                       # What write queue length does an incoming req see
system.mem_ctrl.wrQLenPdf::31                       0                       # What write queue length does an incoming req see
system.mem_ctrl.wrQLenPdf::32                       0                       # What write queue length does an incoming req see
system.mem_ctrl.wrQLenPdf::33                       0                       # What write queue length does an incoming req see
system.mem_ctrl.wrQLenPdf::34                       0                       # What write queue length does an incoming req see
system.mem_ctrl.wrQLenPdf::35                       0                       # What write queue length does an incoming req see
system.mem_ctrl.wrQLenPdf::36                       0                       # What write queue length does an incoming req see
system.mem_ctrl.wrQLenPdf::37                       0                       # What write queue length does an incoming req see
system.mem_ctrl.wrQLenPdf::38                       0                       # What write queue length does an incoming req see
system.mem_ctrl.wrQLenPdf::39                       0                       # What write queue length does an incoming req see
system.mem_ctrl.wrQLenPdf::40                       0                       # What write queue length does an incoming req see
system.mem_ctrl.wrQLenPdf::41                       0                       # What write queue length does an incoming req see
system.mem_ctrl.wrQLenPdf::42                       0                       # What write queue length does an incoming req see
system.mem_ctrl.wrQLenPdf::43                       0                       # What write queue length does an incoming req see
system.mem_ctrl.wrQLenPdf::44                       0                       # What write queue length does an incoming req see
system.mem_ctrl.wrQLenPdf::45                       0                       # What write queue length does an incoming req see
system.mem_ctrl.wrQLenPdf::46                       0                       # What write queue length does an incoming req see
system.mem_ctrl.wrQLenPdf::47                       0                       # What write queue length does an incoming req see
system.mem_ctrl.wrQLenPdf::48                       0                       # What write queue length does an incoming req see
system.mem_ctrl.wrQLenPdf::49                       0                       # What write queue length does an incoming req see
system.mem_ctrl.wrQLenPdf::50                       0                       # What write queue length does an incoming req see
system.mem_ctrl.wrQLenPdf::51                       0                       # What write queue length does an incoming req see
system.mem_ctrl.wrQLenPdf::52                       0                       # What write queue length does an incoming req see
system.mem_ctrl.wrQLenPdf::53                       0                       # What write queue length does an incoming req see
system.mem_ctrl.wrQLenPdf::54                       0                       # What write queue length does an incoming req see
system.mem_ctrl.wrQLenPdf::55                       0                       # What write queue length does an incoming req see
system.mem_ctrl.wrQLenPdf::56                       0                       # What write queue length does an incoming req see
system.mem_ctrl.wrQLenPdf::57                       0                       # What write queue length does an incoming req see
system.mem_ctrl.wrQLenPdf::58                       0                       # What write queue length does an incoming req see
system.mem_ctrl.wrQLenPdf::59                       0                       # What write queue length does an incoming req see
system.mem_ctrl.wrQLenPdf::60                       0                       # What write queue length does an incoming req see
system.mem_ctrl.wrQLenPdf::61                       0                       # What write queue length does an incoming req see
system.mem_ctrl.wrQLenPdf::62                       0                       # What write queue length does an incoming req see
system.mem_ctrl.wrQLenPdf::63                       0                       # What write queue length does an incoming req see
system.mem_ctrl.bytesPerActivate::samples          154                       # Bytes accessed per row activation
system.mem_ctrl.bytesPerActivate::mean     307.948052                       # Bytes accessed per row activation
system.mem_ctrl.bytesPerActivate::gmean    189.931235                       # Bytes accessed per row activation
system.mem_ctrl.bytesPerActivate::stdev    310.684334                       # Bytes accessed per row activation
system.mem_ctrl.bytesPerActivate::0-127            51     33.12%     33.12% # Bytes accessed per row activation
system.mem_ctrl.bytesPerActivate::128-255           40     25.97%     59.09% # Bytes accessed per row activation
system.mem_ctrl.bytesPerActivate::256-383           18     11.69%     70.78% # Bytes accessed per row activation
system.mem_ctrl.bytesPerActivate::384-511           10      6.49%     77.27% # Bytes accessed per row activation
system.mem_ctrl.bytesPerActivate::512-639            5      3.25%     80.52% # Bytes accessed per row activation
system.mem_ctrl.bytesPerActivate::640-767            8      5.19%     85.71% # Bytes accessed per row activation
system.mem_ctrl.bytesPerActivate::768-895            6      3.90%     89.61% # Bytes accessed per row activation
system.mem_ctrl.bytesPerActivate::896-1023            3      1.95%     91.56% # Bytes accessed per row activation
system.mem_ctrl.bytesPerActivate::1024-1151           13      8.44%    100.00% # Bytes accessed per row activation
system.mem_ctrl.bytesPerActivate::total           154                       # Bytes accessed per row activation
system.mem_ctrl.masterReadBytes::.cpu.inst        30976                       # Per-master bytes read from memory
system.mem_ctrl.masterReadBytes::.cpu.data        18176                       # Per-master bytes read from memory
system.mem_ctrl.masterReadRate::.cpu.inst 2136330.448995265644                       # Per-master bytes read from memory rate (Bytes/sec)
system.mem_ctrl.masterReadRate::.cpu.data 1253549.271724494873                       # Per-master bytes read from memory rate (Bytes/sec)
system.mem_ctrl.masterReadAccesses::.cpu.inst          484                       # Per-master read serviced memory accesses
system.mem_ctrl.masterReadAccesses::.cpu.data          284                       # Per-master read serviced memory accesses
system.mem_ctrl.masterReadTotalLat::.cpu.inst     16350500                       # Per-master read total memory access latency
system.mem_ctrl.masterReadTotalLat::.cpu.data     10844000                       # Per-master read total memory access latency
system.mem_ctrl.masterReadAvgLat::.cpu.inst     33782.02                       # Per-master read average memory access latency
system.mem_ctrl.masterReadAvgLat::.cpu.data     38183.10                       # Per-master read average memory access latency
system.mem_ctrl.totQLat                      12794500                       # Total ticks spent queuing
system.mem_ctrl.totMemAccLat                 27194500                       # Total ticks spent from burst creation until serviced by the DRAM
system.mem_ctrl.totBusLat                     3840000                       # Total ticks spent in databus transfers
system.mem_ctrl.avgQLat                      16659.51                       # Average queueing delay per DRAM burst
system.mem_ctrl.avgBusLat                     5000.00                       # Average bus latency per DRAM burst
system.mem_ctrl.avgMemAccLat                 35409.51                       # Average memory access latency per DRAM burst
system.mem_ctrl.avgRdBW                          3.39                       # Average DRAM read bandwidth in MiByte/s
system.mem_ctrl.avgWrBW                          0.00                       # Average achieved write bandwidth in MiByte/s
system.mem_ctrl.avgRdBWSys                       3.39                       # Average system read bandwidth in MiByte/s
system.mem_ctrl.avgWrBWSys                       0.00                       # Average system write bandwidth in MiByte/s
system.mem_ctrl.peakBW                       12800.00                       # Theoretical peak bandwidth in MiByte/s
system.mem_ctrl.busUtil                          0.03                       # Data bus utilization in percentage
system.mem_ctrl.busUtilRead                      0.03                       # Data bus utilization in percentage for reads
system.mem_ctrl.busUtilWrite                     0.00                       # Data bus utilization in percentage for writes
system.mem_ctrl.avgRdQLen                        1.00                       # Average read queue length when enqueuing
system.mem_ctrl.avgWrQLen                        0.00                       # Average write queue length when enqueuing
system.mem_ctrl.readRowHits                       603                       # Number of row buffer hits during reads
system.mem_ctrl.writeRowHits                        0                       # Number of row buffer hits during writes
system.mem_ctrl.readRowHitRate                  78.52                       # Row buffer hit rate for reads
system.mem_ctrl.writeRowHitRate                   nan                       # Row buffer hit rate for writes
system.mem_ctrl.avgGap                    18879599.61                       # Average gap between requests
system.mem_ctrl.pageHitRate                     78.52                       # Row buffer hit rate, read and write combined
system.mem_ctrl_0.actEnergy                    564060                       # Energy for activate commands per rank (pJ)
system.mem_ctrl_0.preEnergy                    277035                       # Energy for precharge commands per rank (pJ)
system.mem_ctrl_0.readEnergy                  3034500                       # Energy for read commands per rank (pJ)
system.mem_ctrl_0.writeEnergy                       0                       # Energy for write commands per rank (pJ)
system.mem_ctrl_0.refreshEnergy          7375680.000000                       # Energy for refresh commands per rank (pJ)
system.mem_ctrl_0.actBackEnergy               6744240                       # Energy for active background per rank (pJ)
system.mem_ctrl_0.preBackEnergy                276960                       # Energy for precharge background per rank (pJ)
system.mem_ctrl_0.actPowerDownEnergy         34333380                       # Energy for active power-down per rank (pJ)
system.mem_ctrl_0.prePowerDownEnergy          3279360                       # Energy for precharge power-down per rank (pJ)
system.mem_ctrl_0.selfRefreshEnergy        3456620940                       # Energy for self refresh per rank (pJ)
system.mem_ctrl_0.totalEnergy              3512506155                       # Total energy per rank (pJ)
system.mem_ctrl_0.averagePower             242.247994                       # Core power per rank (mW)
system.mem_ctrl_0.totalIdleTime           14484092250                       # Total Idle time Per DRAM Rank
system.mem_ctrl_0.memoryStateTime::IDLE        360500                       # Time in different power states
system.mem_ctrl_0.memoryStateTime::REF        3120000                       # Time in different power states
system.mem_ctrl_0.memoryStateTime::SREF   14400286000                       # Time in different power states
system.mem_ctrl_0.memoryStateTime::PRE_PDN      8540500                       # Time in different power states
system.mem_ctrl_0.memoryStateTime::ACT       12016750                       # Time in different power states
system.mem_ctrl_0.memoryStateTime::ACT_PDN     75305750                       # Time in different power states
system.mem_ctrl_1.actEnergy                    614040                       # Energy for activate commands per rank (pJ)
system.mem_ctrl_1.preEnergy                    307395                       # Energy for precharge commands per rank (pJ)
system.mem_ctrl_1.readEnergy                  2449020                       # Energy for read commands per rank (pJ)
system.mem_ctrl_1.writeEnergy                       0                       # Energy for write commands per rank (pJ)
system.mem_ctrl_1.refreshEnergy          3687840.000000                       # Energy for refresh commands per rank (pJ)
system.mem_ctrl_1.actBackEnergy               4667160                       # Energy for active background per rank (pJ)
system.mem_ctrl_1.preBackEnergy                215040                       # Energy for precharge background per rank (pJ)
system.mem_ctrl_1.actPowerDownEnergy         14821140                       # Energy for active power-down per rank (pJ)
system.mem_ctrl_1.prePowerDownEnergy          2976960                       # Energy for precharge power-down per rank (pJ)
system.mem_ctrl_1.selfRefreshEnergy        3468211440                       # Energy for self refresh per rank (pJ)
system.mem_ctrl_1.totalEnergy              3497950035                       # Total energy per rank (pJ)
system.mem_ctrl_1.averagePower             241.244098                       # Core power per rank (mW)
system.mem_ctrl_1.totalIdleTime           14488676000                       # Total Idle time Per DRAM Rank
system.mem_ctrl_1.memoryStateTime::IDLE        406500                       # Time in different power states
system.mem_ctrl_1.memoryStateTime::REF        1560000                       # Time in different power states
system.mem_ctrl_1.memoryStateTime::SREF   14448579500                       # Time in different power states
system.mem_ctrl_1.memoryStateTime::PRE_PDN      7752000                       # Time in different power states
system.mem_ctrl_1.memoryStateTime::ACT        8820250                       # Time in different power states
system.mem_ctrl_1.memoryStateTime::ACT_PDN     32511250                       # Time in different power states
system.pwrStateResidencyTicks::UNDEFINED  14499629500                       # Cumulative time (in ticks) in various power states
system.cpu.branchPred.lookups                 2039958                       # Number of BP lookups
system.cpu.branchPred.condPredicted           2039958                       # Number of conditional branches predicted
system.cpu.branchPred.condIncorrect             19719                       # Number of conditional branches incorrect
system.cpu.branchPred.BTBLookups              1765674                       # Number of BTB lookups
system.cpu.branchPred.BTBHits                       0                       # Number of BTB hits
system.cpu.branchPred.BTBCorrect                    0                       # Number of correct BTB predictions (this stat may not work properly.
system.cpu.branchPred.BTBHitPct              0.000000                       # BTB Hit Percentage
system.cpu.branchPred.usedRAS                    3145                       # Number of times the RAS was used to get a target.
system.cpu.branchPred.RASInCorrect                 66                       # Number of incorrect RAS predictions.
system.cpu.branchPred.indirectLookups         1765674                       # Number of indirect predictor lookups.
system.cpu.branchPred.indirectHits            1762737                       # Number of indirect target hits.
system.cpu.branchPred.indirectMisses             2937                       # Number of indirect misses.
system.cpu.branchPredindirectMispredicted          530                       # Number of mispredicted indirect branches.
system.cpu.dtb.walker.pwrStateResidencyTicks::UNDEFINED  14499629500                       # Cumulative time (in ticks) in various power states
system.cpu.dtb.rdAccesses                    11716994                       # TLB accesses on read requests
system.cpu.dtb.wrAccesses                     2006028                       # TLB accesses on write requests
system.cpu.dtb.rdMisses                            84                       # TLB misses on read requests
system.cpu.dtb.wrMisses                            23                       # TLB misses on write requests
system.cpu.apic_clk_domain.clock                 8000                       # Clock period in ticks
system.cpu.interrupts.pwrStateResidencyTicks::UNDEFINED  14499629500                       # Cumulative time (in ticks) in various power states
system.cpu.itb.walker.pwrStateResidencyTicks::UNDEFINED  14499629500                       # Cumulative time (in ticks) in various power states
system.cpu.itb.rdAccesses                           0                       # TLB accesses on read requests
system.cpu.itb.wrAccesses                     3324128                       # TLB accesses on write requests
system.cpu.itb.rdMisses                             0                       # TLB misses on read requests
system.cpu.itb.wrMisses                           142                       # TLB misses on write requests
system.cpu.workload.numSyscalls                    11                       # Number of system calls
system.cpu.pwrStateResidencyTicks::ON     14499629500                       # Cumulative time (in ticks) in various power states
system.cpu.numCycles                         28999260                       # number of cpu cycles simulated
system.cpu.numWorkItemsStarted                      0                       # number of work items this cpu started
system.cpu.numWorkItemsCompleted                    0                       # number of work items this cpu completed
system.cpu.fetch.icacheStallCycles              44445                       # Number of cycles fetch is stalled on an Icache miss
system.cpu.fetch.Insts                       27047518                       # Number of instructions fetch has processed
system.cpu.fetch.Branches                     2039958                       # Number of branches that fetch encountered
system.cpu.fetch.predictedBranches            1765882                       # Number of branches that fetch has predicted taken
system.cpu.fetch.Cycles                      28910519                       # Number of cycles fetch has run and was not squashing or blocked
system.cpu.fetch.SquashCycles                   39800                       # Number of cycles fetch has spent squashing
system.cpu.fetch.MiscStallCycles                   87                       # Number of cycles fetch has spent waiting on interrupts, or bad addresses, or out of MSHRs
system.cpu.fetch.PendingTrapStallCycles           978                       # Number of stall cycles due to pending traps
system.cpu.fetch.PendingQuiesceStallCycles           38                       # Number of stall cycles due to pending quiesce instructions
system.cpu.fetch.CacheLines                   3324026                       # Number of cache lines fetched
system.cpu.fetch.IcacheSquashes                   335                       # Number of outstanding Icache misses that were squashed
system.cpu.fetch.rateDist::samples           28975967                       # Number of instructions fetched each cycle (Total)
system.cpu.fetch.rateDist::mean              1.224828                       # Number of instructions fetched each cycle (Total)
system.cpu.fetch.rateDist::stdev             0.945624                       # Number of instructions fetched each cycle (Total)
system.cpu.fetch.rateDist::underflows               0      0.00%      0.00% # Number of instructions fetched each cycle (Total)
system.cpu.fetch.rateDist::0                 10430261     36.00%     36.00% # Number of instructions fetched each cycle (Total)
system.cpu.fetch.rateDist::1                  1600845      5.52%     41.52% # Number of instructions fetched each cycle (Total)
system.cpu.fetch.rateDist::2                 16944861     58.48%    100.00% # Number of instructions fetched each cycle (Total)
system.cpu.fetch.rateDist::overflows                0      0.00%    100.00% # Number of instructions fetched each cycle (Total)
system.cpu.fetch.rateDist::min_value                0                       # Number of instructions fetched each cycle (Total)
system.cpu.fetch.rateDist::max_value                2                       # Number of instructions fetched each cycle (Total)
system.cpu.fetch.rateDist::total             28975967                       # Number of instructions fetched each cycle (Total)
system.cpu.fetch.branchRate                  0.070345                       # Number of branch fetches per cycle
system.cpu.fetch.rate                        0.932697                       # Number of inst fetches per cycle
system.cpu.decode.IdleCycles                  2952756                       # Number of cycles decode is idle
system.cpu.decode.BlockedCycles               8413606                       # Number of cycles decode is blocked
system.cpu.decode.RunCycles                  13363034                       # Number of cycles decode is running
system.cpu.decode.UnblockCycles               4226671                       # Number of cycles decode is unblocking
system.cpu.decode.SquashCycles                  19900                       # Number of cycles decode is squashing
system.cpu.decode.DecodedInsts               34994558                       # Number of instructions handled by decode
system.cpu.decode.SquashedInsts                 59188                       # Number of squashed instructions handled by decode
system.cpu.rename.SquashCycles                  19900                       # Number of cycles rename is squashing
system.cpu.rename.IdleCycles                  4849450                       # Number of cycles rename is idle
system.cpu.rename.BlockCycles                 4796988                       # Number of cycles rename is blocking
system.cpu.rename.serializeStallCycles           1276                       # count of cycles rename stalled for serializing inst
system.cpu.rename.RunCycles                  15227762                       # Number of cycles rename is running
system.cpu.rename.UnblockCycles               4080591                       # Number of cycles rename is unblocking
system.cpu.rename.RenamedInsts               34926265                       # Number of instructions processed by rename
system.cpu.rename.SquashedInsts                 24604                       # Number of squashed instructions processed by rename
system.cpu.rename.ROBFullEvents                    26                       # Number of times rename has blocked due to ROB full
system.cpu.rename.IQFullEvents                2293356                       # Number of times rename has blocked due to IQ full
system.cpu.rename.LQFullEvents                 142409                       # Number of times rename has blocked due to LQ full
system.cpu.rename.SQFullEvents                  15998                       # Number of times rename has blocked due to SQ full
system.cpu.rename.RenamedOperands            45995285                       # Number of destination operands rename has renamed
system.cpu.rename.RenameLookups              90824300                       # Number of register rename lookups that rename has made
system.cpu.rename.int_rename_lookups         61292552                       # Number of integer rename lookups
system.cpu.rename.fp_rename_lookups              3874                       # Number of floating rename lookups
system.cpu.rename.CommittedMaps              44929402                       # Number of HB maps that are committed
system.cpu.rename.UndoneMaps                  1065883                       # Number of HB maps that are undone due to squashing
system.cpu.rename.serializingInsts                 30                       # count of serializing insts renamed
system.cpu.rename.tempSerializingInsts             28                       # count of temporary serializing insts renamed
system.cpu.rename.skidInsts                   5753324                       # count of insts added to the skid buffer
system.cpu.memDep0.insertedLoads             11848890                       # Number of loads inserted to the mem dependence unit.
system.cpu.memDep0.insertedStores             2062038                       # Number of stores inserted to the mem dependence unit.
system.cpu.memDep0.conflictingLoads           5318509                       # Number of conflicting loads.
system.cpu.memDep0.conflictingStores          1090029                       # Number of conflicting stores.
system.cpu.iq.iqInstsAdded                   34859824                       # Number of instructions added to the IQ (excludes non-spec)
system.cpu.iq.iqNonSpecInstsAdded                 119                       # Number of non-speculative instructions added to the IQ
system.cpu.iq.iqInstsIssued                  34462986                       # Number of instructions issued
system.cpu.iq.iqSquashedInstsIssued             10629                       # Number of squashed instructions issued
system.cpu.iq.iqSquashedInstsExamined          756655                       # Number of squashed instructions iterated over during squash; mainly for profiling
system.cpu.iq.iqSquashedOperandsExamined      1252626                       # Number of squashed operands that are examined and possibly removed from graph
system.cpu.iq.iqSquashedNonSpecRemoved            108                       # Number of squashed non-spec instructions that were removed
system.cpu.iq.issued_per_cycle::samples      28975967                       # Number of insts issued each cycle
system.cpu.iq.issued_per_cycle::mean         1.189364                       # Number of insts issued each cycle
system.cpu.iq.issued_per_cycle::stdev        0.753842                       # Number of insts issued each cycle
system.cpu.iq.issued_per_cycle::underflows            0      0.00%      0.00% # Number of insts issued each cycle
system.cpu.iq.issued_per_cycle::0             6009205     20.74%     20.74% # Number of insts issued each cycle
system.cpu.iq.issued_per_cycle::1            11470538     39.59%     60.32% # Number of insts issued each cycle
system.cpu.iq.issued_per_cycle::2            11496224     39.68%    100.00% # Number of insts issued each cycle
system.cpu.iq.issued_per_cycle::overflows            0      0.00%    100.00% # Number of insts issued each cycle
system.cpu.iq.issued_per_cycle::min_value            0                       # Number of insts issued each cycle
system.cpu.iq.issued_per_cycle::max_value            2                       # Number of insts issued each cycle
system.cpu.iq.issued_per_cycle::total        28975967                       # Number of insts issued each cycle
system.cpu.iq.fu_full::No_OpClass                   0      0.00%      0.00% # attempts to use FU when none available
system.cpu.iq.fu_full::IntAlu                       0      0.00%      0.00% # attempts to use FU when none available
system.cpu.iq.fu_full::IntMult                      0      0.00%      0.00% # attempts to use FU when none available
system.cpu.iq.fu_full::IntDiv                       0      0.00%      0.00% # attempts to use FU when none available
system.cpu.iq.fu_full::FloatAdd                     0      0.00%      0.00% # attempts to use FU when none available
system.cpu.iq.fu_full::FloatCmp                     0      0.00%      0.00% # attempts to use FU when none available
system.cpu.iq.fu_full::FloatCvt                     0      0.00%      0.00% # attempts to use FU when none available
system.cpu.iq.fu_full::FloatMult                    0      0.00%      0.00% # attempts to use FU when none available
system.cpu.iq.fu_full::FloatMultAcc                 0      0.00%      0.00% # attempts to use FU when none available
system.cpu.iq.fu_full::FloatDiv                     0      0.00%      0.00% # attempts to use FU when none available
system.cpu.iq.fu_full::FloatMisc                    0      0.00%      0.00% # attempts to use FU when none available
system.cpu.iq.fu_full::FloatSqrt                    0      0.00%      0.00% # attempts to use FU when none available
system.cpu.iq.fu_full::SimdAdd                    247      0.01%      0.01% # attempts to use FU when none available
system.cpu.iq.fu_full::SimdAddAcc                   0      0.00%      0.01% # attempts to use FU when none available
system.cpu.iq.fu_full::SimdAlu                     54      0.00%      0.01% # attempts to use FU when none available
system.cpu.iq.fu_full::SimdCmp                      0      0.00%      0.01% # attempts to use FU when none available
system.cpu.iq.fu_full::SimdCvt                     16      0.00%      0.01% # attempts to use FU when none available
system.cpu.iq.fu_full::SimdMisc                   116      0.00%      0.01% # attempts to use FU when none available
system.cpu.iq.fu_full::SimdMult                     0      0.00%      0.01% # attempts to use FU when none available
system.cpu.iq.fu_full::SimdMultAcc                  0      0.00%      0.01% # attempts to use FU when none available
system.cpu.iq.fu_full::SimdShift                  120      0.00%      0.01% # attempts to use FU when none available
system.cpu.iq.fu_full::SimdShiftAcc                 0      0.00%      0.01% # attempts to use FU when none available
system.cpu.iq.fu_full::SimdSqrt                     0      0.00%      0.01% # attempts to use FU when none available
system.cpu.iq.fu_full::SimdFloatAdd                 0      0.00%      0.01% # attempts to use FU when none available
system.cpu.iq.fu_full::SimdFloatAlu                 0      0.00%      0.01% # attempts to use FU when none available
system.cpu.iq.fu_full::SimdFloatCmp                 0      0.00%      0.01% # attempts to use FU when none available
system.cpu.iq.fu_full::SimdFloatCvt                 0      0.00%      0.01% # attempts to use FU when none available
system.cpu.iq.fu_full::SimdFloatDiv                 0      0.00%      0.01% # attempts to use FU when none available
system.cpu.iq.fu_full::SimdFloatMisc                0      0.00%      0.01% # attempts to use FU when none available
system.cpu.iq.fu_full::SimdFloatMult                0      0.00%      0.01% # attempts to use FU when none available
system.cpu.iq.fu_full::SimdFloatMultAcc             0      0.00%      0.01% # attempts to use FU when none available
system.cpu.iq.fu_full::SimdFloatSqrt                0      0.00%      0.01% # attempts to use FU when none available
system.cpu.iq.fu_full::SimdAes                      0      0.00%      0.01% # attempts to use FU when none available
system.cpu.iq.fu_full::SimdAesMix                   0      0.00%      0.01% # attempts to use FU when none available
system.cpu.iq.fu_full::SimdSha1Hash                 0      0.00%      0.01% # attempts to use FU when none available
system.cpu.iq.fu_full::SimdSha1Hash2                0      0.00%      0.01% # attempts to use FU when none available
system.cpu.iq.fu_full::SimdSha256Hash               0      0.00%      0.01% # attempts to use FU when none available
system.cpu.iq.fu_full::SimdSha256Hash2              0      0.00%      0.01% # attempts to use FU when none available
system.cpu.iq.fu_full::SimdShaSigma2                0      0.00%      0.01% # attempts to use FU when none available
system.cpu.iq.fu_full::SimdShaSigma3                0      0.00%      0.01% # attempts to use FU when none available
system.cpu.iq.fu_full::MemRead                4603389     98.95%     98.96% # attempts to use FU when none available
system.cpu.iq.fu_full::MemWrite                 48256      1.04%    100.00% # attempts to use FU when none available
system.cpu.iq.fu_full::FloatMemRead                 0      0.00%    100.00% # attempts to use FU when none available
system.cpu.iq.fu_full::FloatMemWrite                0      0.00%    100.00% # attempts to use FU when none available
system.cpu.iq.fu_full::IprAccess                    0      0.00%    100.00% # attempts to use FU when none available
system.cpu.iq.fu_full::InstPrefetch                 0      0.00%    100.00% # attempts to use FU when none available
system.cpu.iq.FU_type_0::No_OpClass               469      0.00%      0.00% # Type of FU issued
system.cpu.iq.FU_type_0::IntAlu              20728121     60.15%     60.15% # Type of FU issued
system.cpu.iq.FU_type_0::IntMult                  126      0.00%     60.15% # Type of FU issued
system.cpu.iq.FU_type_0::IntDiv                    16      0.00%     60.15% # Type of FU issued
system.cpu.iq.FU_type_0::FloatAdd                  10      0.00%     60.15% # Type of FU issued
system.cpu.iq.FU_type_0::FloatCmp                   0      0.00%     60.15% # Type of FU issued
system.cpu.iq.FU_type_0::FloatCvt                   0      0.00%     60.15% # Type of FU issued
system.cpu.iq.FU_type_0::FloatMult                  0      0.00%     60.15% # Type of FU issued
system.cpu.iq.FU_type_0::FloatMultAcc               0      0.00%     60.15% # Type of FU issued
system.cpu.iq.FU_type_0::FloatDiv                   0      0.00%     60.15% # Type of FU issued
system.cpu.iq.FU_type_0::FloatMisc                  0      0.00%     60.15% # Type of FU issued
system.cpu.iq.FU_type_0::FloatSqrt                  0      0.00%     60.15% # Type of FU issued
system.cpu.iq.FU_type_0::SimdAdd                  375      0.00%     60.15% # Type of FU issued
system.cpu.iq.FU_type_0::SimdAddAcc                 0      0.00%     60.15% # Type of FU issued
system.cpu.iq.FU_type_0::SimdAlu                   72      0.00%     60.15% # Type of FU issued
system.cpu.iq.FU_type_0::SimdCmp                    0      0.00%     60.15% # Type of FU issued
system.cpu.iq.FU_type_0::SimdCvt                  110      0.00%     60.15% # Type of FU issued
system.cpu.iq.FU_type_0::SimdMisc                 223      0.00%     60.15% # Type of FU issued
system.cpu.iq.FU_type_0::SimdMult                   0      0.00%     60.15% # Type of FU issued
system.cpu.iq.FU_type_0::SimdMultAcc                0      0.00%     60.15% # Type of FU issued
system.cpu.iq.FU_type_0::SimdShift                186      0.00%     60.15% # Type of FU issued
system.cpu.iq.FU_type_0::SimdShiftAcc               0      0.00%     60.15% # Type of FU issued
system.cpu.iq.FU_type_0::SimdSqrt                   0      0.00%     60.15% # Type of FU issued
system.cpu.iq.FU_type_0::SimdFloatAdd               0      0.00%     60.15% # Type of FU issued
system.cpu.iq.FU_type_0::SimdFloatAlu               0      0.00%     60.15% # Type of FU issued
system.cpu.iq.FU_type_0::SimdFloatCmp               0      0.00%     60.15% # Type of FU issued
system.cpu.iq.FU_type_0::SimdFloatCvt               0      0.00%     60.15% # Type of FU issued
system.cpu.iq.FU_type_0::SimdFloatDiv               0      0.00%     60.15% # Type of FU issued
system.cpu.iq.FU_type_0::SimdFloatMisc              0      0.00%     60.15% # Type of FU issued
system.cpu.iq.FU_type_0::SimdFloatMult              0      0.00%     60.15% # Type of FU issued
system.cpu.iq.FU_type_0::SimdFloatMultAcc            0      0.00%     60.15% # Type of FU issued
system.cpu.iq.FU_type_0::SimdFloatSqrt              0      0.00%     60.15% # Type of FU issued
system.cpu.iq.FU_type_0::SimdAes                    0      0.00%     60.15% # Type of FU issued
system.cpu.iq.FU_type_0::SimdAesMix                 0      0.00%     60.15% # Type of FU issued
system.cpu.iq.FU_type_0::SimdSha1Hash               0      0.00%     60.15% # Type of FU issued
system.cpu.iq.FU_type_0::SimdSha1Hash2              0      0.00%     60.15% # Type of FU issued
system.cpu.iq.FU_type_0::SimdSha256Hash             0      0.00%     60.15% # Type of FU issued
system.cpu.iq.FU_type_0::SimdSha256Hash2            0      0.00%     60.15% # Type of FU issued
system.cpu.iq.FU_type_0::SimdShaSigma2              0      0.00%     60.15% # Type of FU issued
system.cpu.iq.FU_type_0::SimdShaSigma3              0      0.00%     60.15% # Type of FU issued
system.cpu.iq.FU_type_0::MemRead             11724742     34.02%     94.17% # Type of FU issued
system.cpu.iq.FU_type_0::MemWrite             2008047      5.83%    100.00% # Type of FU issued
system.cpu.iq.FU_type_0::FloatMemRead              64      0.00%    100.00% # Type of FU issued
system.cpu.iq.FU_type_0::FloatMemWrite            425      0.00%    100.00% # Type of FU issued
system.cpu.iq.FU_type_0::IprAccess                  0      0.00%    100.00% # Type of FU issued
system.cpu.iq.FU_type_0::InstPrefetch               0      0.00%    100.00% # Type of FU issued
system.cpu.iq.FU_type_0::total               34462986                       # Type of FU issued
system.cpu.iq.rate                           1.188409                       # Inst issue rate
system.cpu.iq.fu_busy_cnt                     4652198                       # FU busy when requested
system.cpu.iq.fu_busy_rate                   0.134991                       # FU busy rate (busy events/executed inst)
system.cpu.iq.int_inst_queue_reads          102560250                       # Number of integer instruction queue reads
system.cpu.iq.int_inst_queue_writes          35614611                       # Number of integer instruction queue writes
system.cpu.iq.int_inst_queue_wakeup_accesses     34395580                       # Number of integer instruction queue wakeup accesses
system.cpu.iq.fp_inst_queue_reads                4516                       # Number of floating instruction queue reads
system.cpu.iq.fp_inst_queue_writes               2091                       # Number of floating instruction queue writes
system.cpu.iq.fp_inst_queue_wakeup_accesses         1956                       # Number of floating instruction queue wakeup accesses
system.cpu.iq.vec_inst_queue_reads                  0                       # Number of vector instruction queue reads
system.cpu.iq.vec_inst_queue_writes                 0                       # Number of vector instruction queue writes
system.cpu.iq.vec_inst_queue_wakeup_accesses            0                       # Number of vector instruction queue wakeup accesses
system.cpu.iq.int_alu_accesses               39112181                       # Number of integer alu accesses
system.cpu.iq.fp_alu_accesses                    2534                       # Number of floating point alu accesses
system.cpu.iq.vec_alu_accesses                      0                       # Number of vector alu accesses
system.cpu.iew.lsq.thread0.forwLoads          3937343                       # Number of loads that had data forwarded from stores
system.cpu.iew.lsq.thread0.invAddrLoads             0                       # Number of loads ignored due to an invalid address
system.cpu.iew.lsq.thread0.squashedLoads       260639                       # Number of loads squashed
system.cpu.iew.lsq.thread0.ignoredResponses         1668                       # Number of memory responses ignored because the instruction is squashed
system.cpu.iew.lsq.thread0.memOrderViolation          104                       # Number of memory ordering violations
system.cpu.iew.lsq.thread0.squashedStores        64815                       # Number of stores squashed
system.cpu.iew.lsq.thread0.invAddrSwpfs             0                       # Number of software prefetches ignored due to an invalid address
system.cpu.iew.lsq.thread0.blockedLoads             0                       # Number of blocked loads due to partial load-store forwarding
system.cpu.iew.lsq.thread0.rescheduledLoads            1                       # Number of loads that were rescheduled
system.cpu.iew.lsq.thread0.cacheBlocked            14                       # Number of times an access to memory failed due to the cache being blocked
system.cpu.iew.iewIdleCycles                        0                       # Number of cycles IEW is idle
system.cpu.iew.iewSquashCycles                  19900                       # Number of cycles IEW is squashing
system.cpu.iew.iewBlockCycles                  737044                       # Number of cycles IEW is blocking
system.cpu.iew.iewUnblockCycles                 45247                       # Number of cycles IEW is unblocking
system.cpu.iew.iewDispatchedInsts            34859943                       # Number of instructions dispatched to IQ
system.cpu.iew.iewDispSquashedInsts              1325                       # Number of squashed instructions skipped by dispatch
system.cpu.iew.iewDispLoadInsts              11848890                       # Number of dispatched load instructions
system.cpu.iew.iewDispStoreInsts              2062038                       # Number of dispatched store instructions
system.cpu.iew.iewDispNonSpecInsts                 51                       # Number of dispatched non-speculative instructions
system.cpu.iew.iewIQFullEvents                  38172                       # Number of times the IQ has become full, causing a stall
system.cpu.iew.iewLSQFullEvents                  2015                       # Number of times the LSQ has become full, causing a stall
system.cpu.iew.memOrderViolationEvents            104                       # Number of memory order violations
system.cpu.iew.predictedTakenIncorrect           8958                       # Number of branches that were predicted taken incorrectly
system.cpu.iew.predictedNotTakenIncorrect        11577                       # Number of branches that were predicted not taken incorrectly
system.cpu.iew.branchMispredicts                20535                       # Number of branch mispredicts detected at execute
system.cpu.iew.iewExecutedInsts              34419109                       # Number of executed instructions
system.cpu.iew.iewExecLoadInsts              11716993                       # Number of load instructions executed
system.cpu.iew.iewExecSquashedInsts             43877                       # Number of squashed instructions skipped in execute
system.cpu.iew.exec_swp                             0                       # number of swp insts executed
system.cpu.iew.exec_nop                             0                       # number of nop insts executed
system.cpu.iew.exec_refs                     13723021                       # number of memory reference insts executed
system.cpu.iew.exec_branches                  1986587                       # Number of branches executed
system.cpu.iew.exec_stores                    2006028                       # Number of stores executed
system.cpu.iew.exec_rate                     1.186896                       # Inst execution rate
system.cpu.iew.wb_sent                       34403354                       # cumulative count of insts sent to commit
system.cpu.iew.wb_count                      34397536                       # cumulative count of insts written-back
system.cpu.iew.wb_producers                  29873158                       # num instructions producing a value
system.cpu.iew.wb_consumers                  37490088                       # num instructions consuming a value
system.cpu.iew.wb_rate                       1.186152                       # insts written-back per cycle
system.cpu.iew.wb_fanout                     0.796828                       # average fanout of values written-back
system.cpu.commit.commitSquashedInsts          725656                       # The number of squashed insts skipped by commit
system.cpu.commit.commitNonSpecStalls              11                       # The number of times commit has been forced to stall to communicate backwards
system.cpu.commit.branchMispredicts             19797                       # The number of times a branch was mispredicted
system.cpu.commit.committed_per_cycle::samples     28921282                       # Number of insts commited each cycle
system.cpu.commit.committed_per_cycle::mean     1.179176                       # Number of insts commited each cycle
system.cpu.commit.committed_per_cycle::stdev     0.904481                       # Number of insts commited each cycle
system.cpu.commit.committed_per_cycle::underflows            0      0.00%      0.00% # Number of insts commited each cycle
system.cpu.commit.committed_per_cycle::0      9703277     33.55%     33.55% # Number of insts commited each cycle
system.cpu.commit.committed_per_cycle::1      4332723     14.98%     48.53% # Number of insts commited each cycle
system.cpu.commit.committed_per_cycle::2     14885282     51.47%    100.00% # Number of insts commited each cycle
system.cpu.commit.committed_per_cycle::overflows            0      0.00%    100.00% # Number of insts commited each cycle
system.cpu.commit.committed_per_cycle::min_value            0                       # Number of insts commited each cycle
system.cpu.commit.committed_per_cycle::max_value            2                       # Number of insts commited each cycle
system.cpu.commit.committed_per_cycle::total     28921282                       # Number of insts commited each cycle
system.cpu.commit.committedInsts             25937726                       # Number of instructions committed
system.cpu.commit.committedOps               34103287                       # Number of ops (including micro ops) committed
system.cpu.commit.swp_count                         0                       # Number of s/w prefetches committed
system.cpu.commit.refs                       13585474                       # Number of memory references committed
system.cpu.commit.loads                      11588251                       # Number of loads committed
system.cpu.commit.membars                           0                       # Number of memory barriers committed
system.cpu.commit.branches                    1978276                       # Number of branches committed
system.cpu.commit.vec_insts                         0                       # Number of committed Vector instructions.
system.cpu.commit.fp_insts                       1935                       # Number of committed floating point instructions.
system.cpu.commit.int_insts                  34101764                       # Number of committed integer instructions.
system.cpu.commit.function_calls                 3139                       # Number of function calls committed.
system.cpu.commit.op_class_0::No_OpClass          100      0.00%      0.00% # Class of committed instruction
system.cpu.commit.op_class_0::IntAlu         20516615     60.16%     60.16% # Class of committed instruction
system.cpu.commit.op_class_0::IntMult             124      0.00%     60.16% # Class of committed instruction
system.cpu.commit.op_class_0::IntDiv               14      0.00%     60.16% # Class of committed instruction
system.cpu.commit.op_class_0::FloatAdd             10      0.00%     60.16% # Class of committed instruction
system.cpu.commit.op_class_0::FloatCmp              0      0.00%     60.16% # Class of committed instruction
system.cpu.commit.op_class_0::FloatCvt              0      0.00%     60.16% # Class of committed instruction
system.cpu.commit.op_class_0::FloatMult             0      0.00%     60.16% # Class of committed instruction
system.cpu.commit.op_class_0::FloatMultAcc            0      0.00%     60.16% # Class of committed instruction
system.cpu.commit.op_class_0::FloatDiv              0      0.00%     60.16% # Class of committed instruction
system.cpu.commit.op_class_0::FloatMisc             0      0.00%     60.16% # Class of committed instruction
system.cpu.commit.op_class_0::FloatSqrt             0      0.00%     60.16% # Class of committed instruction
system.cpu.commit.op_class_0::SimdAdd             374      0.00%     60.16% # Class of committed instruction
system.cpu.commit.op_class_0::SimdAddAcc            0      0.00%     60.16% # Class of committed instruction
system.cpu.commit.op_class_0::SimdAlu              68      0.00%     60.16% # Class of committed instruction
system.cpu.commit.op_class_0::SimdCmp               0      0.00%     60.16% # Class of committed instruction
system.cpu.commit.op_class_0::SimdCvt             108      0.00%     60.16% # Class of committed instruction
system.cpu.commit.op_class_0::SimdMisc            214      0.00%     60.16% # Class of committed instruction
system.cpu.commit.op_class_0::SimdMult              0      0.00%     60.16% # Class of committed instruction
system.cpu.commit.op_class_0::SimdMultAcc            0      0.00%     60.16% # Class of committed instruction
system.cpu.commit.op_class_0::SimdShift           186      0.00%     60.16% # Class of committed instruction
system.cpu.commit.op_class_0::SimdShiftAcc            0      0.00%     60.16% # Class of committed instruction
system.cpu.commit.op_class_0::SimdSqrt              0      0.00%     60.16% # Class of committed instruction
system.cpu.commit.op_class_0::SimdFloatAdd            0      0.00%     60.16% # Class of committed instruction
system.cpu.commit.op_class_0::SimdFloatAlu            0      0.00%     60.16% # Class of committed instruction
system.cpu.commit.op_class_0::SimdFloatCmp            0      0.00%     60.16% # Class of committed instruction
system.cpu.commit.op_class_0::SimdFloatCvt            0      0.00%     60.16% # Class of committed instruction
system.cpu.commit.op_class_0::SimdFloatDiv            0      0.00%     60.16% # Class of committed instruction
system.cpu.commit.op_class_0::SimdFloatMisc            0      0.00%     60.16% # Class of committed instruction
system.cpu.commit.op_class_0::SimdFloatMult            0      0.00%     60.16% # Class of committed instruction
system.cpu.commit.op_class_0::SimdFloatMultAcc            0      0.00%     60.16% # Class of committed instruction
system.cpu.commit.op_class_0::SimdFloatSqrt            0      0.00%     60.16% # Class of committed instruction
system.cpu.commit.op_class_0::SimdAes               0      0.00%     60.16% # Class of committed instruction
system.cpu.commit.op_class_0::SimdAesMix            0      0.00%     60.16% # Class of committed instruction
system.cpu.commit.op_class_0::SimdSha1Hash            0      0.00%     60.16% # Class of committed instruction
system.cpu.commit.op_class_0::SimdSha1Hash2            0      0.00%     60.16% # Class of committed instruction
system.cpu.commit.op_class_0::SimdSha256Hash            0      0.00%     60.16% # Class of committed instruction
system.cpu.commit.op_class_0::SimdSha256Hash2            0      0.00%     60.16% # Class of committed instruction
system.cpu.commit.op_class_0::SimdShaSigma2            0      0.00%     60.16% # Class of committed instruction
system.cpu.commit.op_class_0::SimdShaSigma3            0      0.00%     60.16% # Class of committed instruction
system.cpu.commit.op_class_0::MemRead        11588199     33.98%     94.14% # Class of committed instruction
system.cpu.commit.op_class_0::MemWrite        1996812      5.86%    100.00% # Class of committed instruction
system.cpu.commit.op_class_0::FloatMemRead           52      0.00%    100.00% # Class of committed instruction
system.cpu.commit.op_class_0::FloatMemWrite          411      0.00%    100.00% # Class of committed instruction
system.cpu.commit.op_class_0::IprAccess             0      0.00%    100.00% # Class of committed instruction
system.cpu.commit.op_class_0::InstPrefetch            0      0.00%    100.00% # Class of committed instruction
system.cpu.commit.op_class_0::total          34103287                       # Class of committed instruction
system.cpu.commit.bw_lim_events              14885282                       # number cycles where commit BW limit reached
system.cpu.rob.rob_reads                     48864943                       # The number of ROB reads
system.cpu.rob.rob_writes                    69712574                       # The number of ROB writes
system.cpu.timesIdled                             268                       # Number of times that the entire CPU went into an idle state and unscheduled itself
system.cpu.idleCycles                           23293                       # Total number of cycles that the CPU has spent unscheduled due to idling
system.cpu.committedInsts                    25937726                       # Number of Instructions Simulated
system.cpu.committedOps                      34103287                       # Number of Ops (including micro ops) Simulated
system.cpu.cpi                               1.118034                       # CPI: Cycles Per Instruction
system.cpu.cpi_total                         1.118034                       # CPI: Total CPI of All Threads
system.cpu.ipc                               0.894427                       # IPC: Instructions Per Cycle
system.cpu.ipc_total                         0.894427                       # IPC: Total IPC of All Threads
system.cpu.int_regfile_reads                 60272088                       # number of integer regfile reads
system.cpu.int_regfile_writes                30408371                       # number of integer regfile writes
system.cpu.fp_regfile_reads                      3787                       # number of floating regfile reads
system.cpu.fp_regfile_writes                     1483                       # number of floating regfile writes
system.cpu.cc_regfile_reads                  11413487                       # number of cc regfile reads
system.cpu.cc_regfile_writes                 14890348                       # number of cc regfile writes
system.cpu.misc_regfile_reads                17715779                       # number of misc regfile reads
system.cpu.dcache.tags.pwrStateResidencyTicks::UNDEFINED  14499629500                       # Cumulative time (in ticks) in various power states
system.cpu.dcache.tags.tagsinuse           266.539255                       # Cycle average of tags in use
system.cpu.dcache.tags.total_refs             9776674                       # Total number of references to valid blocks.
system.cpu.dcache.tags.sampled_refs               284                       # Sample count of references to valid blocks.
system.cpu.dcache.tags.avg_refs          34424.908451                       # Average number of references to valid blocks.
system.cpu.dcache.tags.warmup_cycle            170000                       # Cycle when the warmup percentage was hit.
system.cpu.dcache.tags.occ_blocks::.cpu.data   266.539255                       # Average occupied blocks per requestor
system.cpu.dcache.tags.occ_percent::.cpu.data     0.520584                       # Average percentage of cache occupancy
system.cpu.dcache.tags.occ_percent::total     0.520584                       # Average percentage of cache occupancy
system.cpu.dcache.tags.occ_task_id_blocks::1024          284                       # Occupied blocks per task id
system.cpu.dcache.tags.age_task_id_blocks_1024::0           17                       # Occupied blocks per task id
system.cpu.dcache.tags.age_task_id_blocks_1024::4          267                       # Occupied blocks per task id
system.cpu.dcache.tags.occ_task_id_percent::1024     0.554688                       # Percentage of cache occupancy per task id
system.cpu.dcache.tags.tag_accesses          78214580                       # Number of tag accesses
system.cpu.dcache.tags.data_accesses         78214580                       # Number of data accesses
system.cpu.dcache.pwrStateResidencyTicks::UNDEFINED  14499629500                       # Cumulative time (in ticks) in various power states
system.cpu.dcache.ReadReq_hits::.cpu.data      7779342                       # number of ReadReq hits
system.cpu.dcache.ReadReq_hits::total         7779342                       # number of ReadReq hits
system.cpu.dcache.WriteReq_hits::.cpu.data      1997048                       # number of WriteReq hits
system.cpu.dcache.WriteReq_hits::total        1997048                       # number of WriteReq hits
system.cpu.dcache.demand_hits::.cpu.data      9776390                       # number of demand (read+write) hits
system.cpu.dcache.demand_hits::total          9776390                       # number of demand (read+write) hits
system.cpu.dcache.overall_hits::.cpu.data      9776390                       # number of overall hits
system.cpu.dcache.overall_hits::total         9776390                       # number of overall hits
system.cpu.dcache.ReadReq_misses::.cpu.data          222                       # number of ReadReq misses
system.cpu.dcache.ReadReq_misses::total           222                       # number of ReadReq misses
system.cpu.dcache.WriteReq_misses::.cpu.data          175                       # number of WriteReq misses
system.cpu.dcache.WriteReq_misses::total          175                       # number of WriteReq misses
system.cpu.dcache.demand_misses::.cpu.data          397                       # number of demand (read+write) misses
system.cpu.dcache.demand_misses::total            397                       # number of demand (read+write) misses
system.cpu.dcache.overall_misses::.cpu.data          397                       # number of overall misses
system.cpu.dcache.overall_misses::total           397                       # number of overall misses
system.cpu.dcache.ReadReq_miss_latency::.cpu.data     17385000                       # number of ReadReq miss cycles
system.cpu.dcache.ReadReq_miss_latency::total     17385000                       # number of ReadReq miss cycles
system.cpu.dcache.WriteReq_miss_latency::.cpu.data     15773500                       # number of WriteReq miss cycles
system.cpu.dcache.WriteReq_miss_latency::total     15773500                       # number of WriteReq miss cycles
system.cpu.dcache.demand_miss_latency::.cpu.data     33158500                       # number of demand (read+write) miss cycles
system.cpu.dcache.demand_miss_latency::total     33158500                       # number of demand (read+write) miss cycles
system.cpu.dcache.overall_miss_latency::.cpu.data     33158500                       # number of overall miss cycles
system.cpu.dcache.overall_miss_latency::total     33158500                       # number of overall miss cycles
system.cpu.dcache.ReadReq_accesses::.cpu.data      7779564                       # number of ReadReq accesses(hits+misses)
system.cpu.dcache.ReadReq_accesses::total      7779564                       # number of ReadReq accesses(hits+misses)
system.cpu.dcache.WriteReq_accesses::.cpu.data      1997223                       # number of WriteReq accesses(hits+misses)
system.cpu.dcache.WriteReq_accesses::total      1997223                       # number of WriteReq accesses(hits+misses)
system.cpu.dcache.demand_accesses::.cpu.data      9776787                       # number of demand (read+write) accesses
system.cpu.dcache.demand_accesses::total      9776787                       # number of demand (read+write) accesses
system.cpu.dcache.overall_accesses::.cpu.data      9776787                       # number of overall (read+write) accesses
system.cpu.dcache.overall_accesses::total      9776787                       # number of overall (read+write) accesses
system.cpu.dcache.ReadReq_miss_rate::.cpu.data     0.000029                       # miss rate for ReadReq accesses
system.cpu.dcache.ReadReq_miss_rate::total     0.000029                       # miss rate for ReadReq accesses
system.cpu.dcache.WriteReq_miss_rate::.cpu.data     0.000088                       # miss rate for WriteReq accesses
system.cpu.dcache.WriteReq_miss_rate::total     0.000088                       # miss rate for WriteReq accesses
system.cpu.dcache.demand_miss_rate::.cpu.data     0.000041                       # miss rate for demand accesses
system.cpu.dcache.demand_miss_rate::total     0.000041                       # miss rate for demand accesses
system.cpu.dcache.overall_miss_rate::.cpu.data     0.000041                       # miss rate for overall accesses
system.cpu.dcache.overall_miss_rate::total     0.000041                       # miss rate for overall accesses
system.cpu.dcache.ReadReq_avg_miss_latency::.cpu.data 78310.810811                       # average ReadReq miss latency
system.cpu.dcache.ReadReq_avg_miss_latency::total 78310.810811                       # average ReadReq miss latency
system.cpu.dcache.WriteReq_avg_miss_latency::.cpu.data 90134.285714                       # average WriteReq miss latency
system.cpu.dcache.WriteReq_avg_miss_latency::total 90134.285714                       # average WriteReq miss latency
system.cpu.dcache.demand_avg_miss_latency::.cpu.data 83522.670025                       # average overall miss latency
system.cpu.dcache.demand_avg_miss_latency::total 83522.670025                       # average overall miss latency
system.cpu.dcache.overall_avg_miss_latency::.cpu.data 83522.670025                       # average overall miss latency
system.cpu.dcache.overall_avg_miss_latency::total 83522.670025                       # average overall miss latency
[...]
system.l3bus.snoop_fanout::1                        0      0.00%    100.00% # Request fanout histogram
system.l3bus.snoop_fanout::overflows                0      0.00%    100.00% # Request fanout histogram
system.l3bus.snoop_fanout::min_value                0                       # Request fanout histogram
system.l3bus.snoop_fanout::max_value                0                       # Request fanout histogram
system.l3bus.snoop_fanout::total                  768                       # Request fanout histogram
system.l3bus.reqLayer0.occupancy               384000                       # Layer occupancy (ticks)
system.l3bus.reqLayer0.utilization                0.0                       # Layer utilization (%)
system.l3bus.respLayer0.occupancy             1920000                       # Layer occupancy (ticks)
system.l3bus.respLayer0.utilization               0.0                       # Layer utilization (%)
system.l3cache.tags.pwrStateResidencyTicks::UNDEFINED  14499629500                       # Cumulative time (in ticks) in various power states
system.l3cache.tags.tagsinuse              683.021912                       # Cycle average of tags in use
system.l3cache.tags.total_refs                    768                       # Total number of references to valid blocks.
system.l3cache.tags.sampled_refs                  768                       # Sample count of references to valid blocks.
system.l3cache.tags.avg_refs                        1                       # Average number of references to valid blocks.
system.l3cache.tags.warmup_cycle                76000                       # Cycle when the warmup percentage was hit.
system.l3cache.tags.occ_blocks::.cpu.inst   416.482540                       # Average occupied blocks per requestor
system.l3cache.tags.occ_blocks::.cpu.data   266.539373                       # Average occupied blocks per requestor
system.l3cache.tags.occ_percent::.cpu.inst     0.006355                       # Average percentage of cache occupancy
system.l3cache.tags.occ_percent::.cpu.data     0.004067                       # Average percentage of cache occupancy
system.l3cache.tags.occ_percent::total       0.010422                       # Average percentage of cache occupancy
system.l3cache.tags.occ_task_id_blocks::1024          768                       # Occupied blocks per task id
system.l3cache.tags.age_task_id_blocks_1024::0           84                       # Occupied blocks per task id
system.l3cache.tags.age_task_id_blocks_1024::4          684                       # Occupied blocks per task id
system.l3cache.tags.occ_task_id_percent::1024     0.011719                       # Percentage of cache occupancy per task id
system.l3cache.tags.tag_accesses                13056                       # Number of tag accesses
system.l3cache.tags.data_accesses               13056                       # Number of data accesses
system.l3cache.pwrStateResidencyTicks::UNDEFINED  14499629500                       # Cumulative time (in ticks) in various power states
system.l3cache.ReadExReq_misses::.cpu.data          174                       # number of ReadExReq misses
system.l3cache.ReadExReq_misses::total            174                       # number of ReadExReq misses
system.l3cache.ReadSharedReq_misses::.cpu.inst          484                       # number of ReadSharedReq misses
system.l3cache.ReadSharedReq_misses::.cpu.data          110                       # number of ReadSharedReq misses
system.l3cache.ReadSharedReq_misses::total          594                       # number of ReadSharedReq misses
system.l3cache.demand_misses::.cpu.inst           484                       # number of demand (read+write) misses
system.l3cache.demand_misses::.cpu.data           284                       # number of demand (read+write) misses
system.l3cache.demand_misses::total               768                       # number of demand (read+write) misses
system.l3cache.overall_misses::.cpu.inst          484                       # number of overall misses
system.l3cache.overall_misses::.cpu.data          284                       # number of overall misses
system.l3cache.overall_misses::total              768                       # number of overall misses
system.l3cache.ReadExReq_miss_latency::.cpu.data     13358500                       # number of ReadExReq miss cycles
system.l3cache.ReadExReq_miss_latency::total     13358500                       # number of ReadExReq miss cycles
system.l3cache.ReadSharedReq_miss_latency::.cpu.inst     34366000                       # number of ReadSharedReq miss cycles
system.l3cache.ReadSharedReq_miss_latency::.cpu.data      8054500                       # number of ReadSharedReq miss cycles
system.l3cache.ReadSharedReq_miss_latency::total     42420500                       # number of ReadSharedReq miss cycles
system.l3cache.demand_miss_latency::.cpu.inst     34366000                       # number of demand (read+write) miss cycles
system.l3cache.demand_miss_latency::.cpu.data     21413000                       # number of demand (read+write) miss cycles
system.l3cache.demand_miss_latency::total     55779000                       # number of demand (read+write) miss cycles
system.l3cache.overall_miss_latency::.cpu.inst     34366000                       # number of overall miss cycles
system.l3cache.overall_miss_latency::.cpu.data     21413000                       # number of overall miss cycles
system.l3cache.overall_miss_latency::total     55779000                       # number of overall miss cycles
system.l3cache.ReadExReq_accesses::.cpu.data          174                       # number of ReadExReq accesses(hits+misses)
system.l3cache.ReadExReq_accesses::total          174                       # number of ReadExReq accesses(hits+misses)
system.l3cache.ReadSharedReq_accesses::.cpu.inst          484                       # number of ReadSharedReq accesses(hits+misses)
system.l3cache.ReadSharedReq_accesses::.cpu.data          110                       # number of ReadSharedReq accesses(hits+misses)
system.l3cache.ReadSharedReq_accesses::total          594                       # number of ReadSharedReq accesses(hits+misses)
system.l3cache.demand_accesses::.cpu.inst          484                       # number of demand (read+write) accesses
system.l3cache.demand_accesses::.cpu.data          284                       # number of demand (read+write) accesses
system.l3cache.demand_accesses::total             768                       # number of demand (read+write) accesses
system.l3cache.overall_accesses::.cpu.inst          484                       # number of overall (read+write) accesses
system.l3cache.overall_accesses::.cpu.data          284                       # number of overall (read+write) accesses
system.l3cache.overall_accesses::total            768                       # number of overall (read+write) accesses
system.l3cache.ReadExReq_miss_rate::.cpu.data            1                       # miss rate for ReadExReq accesses
system.l3cache.ReadExReq_miss_rate::total            1                       # miss rate for ReadExReq accesses
system.l3cache.ReadSharedReq_miss_rate::.cpu.inst            1                       # miss rate for ReadSharedReq accesses
system.l3cache.ReadSharedReq_miss_rate::.cpu.data            1                       # miss rate for ReadSharedReq accesses
system.l3cache.ReadSharedReq_miss_rate::total            1                       # miss rate for ReadSharedReq accesses
system.l3cache.demand_miss_rate::.cpu.inst            1                       # miss rate for demand accesses
system.l3cache.demand_miss_rate::.cpu.data            1                       # miss rate for demand accesses
system.l3cache.demand_miss_rate::total              1                       # miss rate for demand accesses
system.l3cache.overall_miss_rate::.cpu.inst            1                       # miss rate for overall accesses
system.l3cache.overall_miss_rate::.cpu.data            1                       # miss rate for overall accesses
system.l3cache.overall_miss_rate::total             1                       # miss rate for overall accesses
system.l3cache.ReadExReq_avg_miss_latency::.cpu.data 76772.988506                       # average ReadExReq miss latency
system.l3cache.ReadExReq_avg_miss_latency::total 76772.988506                       # average ReadExReq miss latency
system.l3cache.ReadSharedReq_avg_miss_latency::.cpu.inst 71004.132231                       # average ReadSharedReq miss latency
system.l3cache.ReadSharedReq_avg_miss_latency::.cpu.data 73222.727273                       # average ReadSharedReq miss latency
system.l3cache.ReadSharedReq_avg_miss_latency::total 71414.983165                       # average ReadSharedReq miss latency
system.l3cache.demand_avg_miss_latency::.cpu.inst 71004.132231                       # average overall miss latency
system.l3cache.demand_avg_miss_latency::.cpu.data 75397.887324                       # average overall miss latency
system.l3cache.demand_avg_miss_latency::total 72628.906250                       # average overall miss latency
system.l3cache.overall_avg_miss_latency::.cpu.inst 71004.132231                       # average overall miss latency
system.l3cache.overall_avg_miss_latency::.cpu.data 75397.887324                       # average overall miss latency
system.l3cache.overall_avg_miss_latency::total 72628.906250                       # average overall miss latency
system.l3cache.blocked_cycles::no_mshrs             0                       # number of cycles access was blocked
system.l3cache.blocked_cycles::no_targets            0                       # number of cycles access was blocked
system.l3cache.blocked::no_mshrs                    0                       # number of cycles access was blocked
system.l3cache.blocked::no_targets                  0                       # number of cycles access was blocked
system.l3cache.avg_blocked_cycles::no_mshrs          nan                       # average number of cycles each access was blocked
system.l3cache.avg_blocked_cycles::no_targets          nan                       # average number of cycles each access was blocked
system.l3cache.ReadExReq_mshr_misses::.cpu.data          174                       # number of ReadExReq MSHR misses
system.l3cache.ReadExReq_mshr_misses::total          174                       # number of ReadExReq MSHR misses
system.l3cache.ReadSharedReq_mshr_misses::.cpu.inst          484                       # number of ReadSharedReq MSHR misses
system.l3cache.ReadSharedReq_mshr_misses::.cpu.data          110                       # number of ReadSharedReq MSHR misses
system.l3cache.ReadSharedReq_mshr_misses::total          594                       # number of ReadSharedReq MSHR misses
system.l3cache.demand_mshr_misses::.cpu.inst          484                       # number of demand (read+write) MSHR misses
system.l3cache.demand_mshr_misses::.cpu.data          284                       # number of demand (read+write) MSHR misses
system.l3cache.demand_mshr_misses::total          768                       # number of demand (read+write) MSHR misses
system.l3cache.overall_mshr_misses::.cpu.inst          484                       # number of overall MSHR misses
system.l3cache.overall_mshr_misses::.cpu.data          284                       # number of overall MSHR misses
system.l3cache.overall_mshr_misses::total          768                       # number of overall MSHR misses
system.l3cache.ReadExReq_mshr_miss_latency::.cpu.data     13010500                       # number of ReadExReq MSHR miss cycles
system.l3cache.ReadExReq_mshr_miss_latency::total     13010500                       # number of ReadExReq MSHR miss cycles
system.l3cache.ReadSharedReq_mshr_miss_latency::.cpu.inst     33398000                       # number of ReadSharedReq MSHR miss cycles
system.l3cache.ReadSharedReq_mshr_miss_latency::.cpu.data      7834500                       # number of ReadSharedReq MSHR miss cycles
system.l3cache.ReadSharedReq_mshr_miss_latency::total     41232500                       # number of ReadSharedReq MSHR miss cycles
system.l3cache.demand_mshr_miss_latency::.cpu.inst     33398000                       # number of demand (read+write) MSHR miss cycles
system.l3cache.demand_mshr_miss_latency::.cpu.data     20845000                       # number of demand (read+write) MSHR miss cycles
system.l3cache.demand_mshr_miss_latency::total     54243000                       # number of demand (read+write) MSHR miss cycles
system.l3cache.overall_mshr_miss_latency::.cpu.inst     33398000                       # number of overall MSHR miss cycles
system.l3cache.overall_mshr_miss_latency::.cpu.data     20845000                       # number of overall MSHR miss cycles
system.l3cache.overall_mshr_miss_latency::total     54243000                       # number of overall MSHR miss cycles
system.l3cache.ReadExReq_mshr_miss_rate::.cpu.data            1                       # mshr miss rate for ReadExReq accesses
system.l3cache.ReadExReq_mshr_miss_rate::total            1                       # mshr miss rate for ReadExReq accesses
system.l3cache.ReadSharedReq_mshr_miss_rate::.cpu.inst            1                       # mshr miss rate for ReadSharedReq accesses
system.l3cache.ReadSharedReq_mshr_miss_rate::.cpu.data            1                       # mshr miss rate for ReadSharedReq accesses
system.l3cache.ReadSharedReq_mshr_miss_rate::total            1                       # mshr miss rate for ReadSharedReq accesses
system.l3cache.demand_mshr_miss_rate::.cpu.inst            1                       # mshr miss rate for demand accesses
system.l3cache.demand_mshr_miss_rate::.cpu.data            1                       # mshr miss rate for demand accesses
system.l3cache.demand_mshr_miss_rate::total            1                       # mshr miss rate for demand accesses
system.l3cache.overall_mshr_miss_rate::.cpu.inst            1                       # mshr miss rate for overall accesses
system.l3cache.overall_mshr_miss_rate::.cpu.data            1                       # mshr miss rate for overall accesses
system.l3cache.overall_mshr_miss_rate::total            1                       # mshr miss rate for overall accesses
system.l3cache.ReadExReq_avg_mshr_miss_latency::.cpu.data 74772.988506                       # average ReadExReq mshr miss latency
system.l3cache.ReadExReq_avg_mshr_miss_latency::total 74772.988506                       # average ReadExReq mshr miss latency
system.l3cache.ReadSharedReq_avg_mshr_miss_latency::.cpu.inst 69004.132231                       # average ReadSharedReq mshr miss latency
system.l3cache.ReadSharedReq_avg_mshr_miss_latency::.cpu.data 71222.727273                       # average ReadSharedReq mshr miss latency
system.l3cache.ReadSharedReq_avg_mshr_miss_latency::total 69414.983165                       # average ReadSharedReq mshr miss latency
system.l3cache.demand_avg_mshr_miss_latency::.cpu.inst 69004.132231                       # average overall mshr miss latency
system.l3cache.demand_avg_mshr_miss_latency::.cpu.data 73397.887324                       # average overall mshr miss latency
system.l3cache.demand_avg_mshr_miss_latency::total 70628.906250                       # average overall mshr miss latency
system.l3cache.overall_avg_mshr_miss_latency::.cpu.inst 69004.132231                       # average overall mshr miss latency
system.l3cache.overall_avg_mshr_miss_latency::.cpu.data 73397.887324                       # average overall mshr miss latency
system.l3cache.overall_avg_mshr_miss_latency::total 70628.906250                       # average overall mshr miss latency
system.l3cache.replacements                         0                       # number of replacements
system.membus.snoop_filter.tot_requests           768                       # Total number of requests made to the snoop filter.
system.membus.snoop_filter.hit_single_requests            0                       # Number of requests hitting in the snoop filter with a single holder of the requested data.
system.membus.snoop_filter.hit_multi_requests            0                       # Number of requests hitting in the snoop filter with multiple (>1) holders of the requested data.
system.membus.snoop_filter.tot_snoops               0                       # Total number of snoops made to the snoop filter.
system.membus.snoop_filter.hit_single_snoops            0                       # Number of snoops hitting in the snoop filter with a single holder of the requested data.
system.membus.snoop_filter.hit_multi_snoops            0                       # Number of snoops hitting in the snoop filter with multiple (>1) holders of the requested data.
system.membus.pwrStateResidencyTicks::UNDEFINED  14499629500                       # Cumulative time (in ticks) in various power states
system.membus.trans_dist::ReadResp                594                       # Transaction distribution
system.membus.trans_dist::ReadExReq               174                       # Transaction distribution
system.membus.trans_dist::ReadExResp              174                       # Transaction distribution
system.membus.trans_dist::ReadSharedReq           594                       # Transaction distribution
system.membus.pkt_count_system.l3cache.mem_side::system.mem_ctrl.port         1536                       # Packet count per connected master and slave (bytes)
system.membus.pkt_count_system.l3cache.mem_side::total         1536                       # Packet count per connected master and slave (bytes)
system.membus.pkt_count::total                   1536                       # Packet count per connected master and slave (bytes)
system.membus.pkt_size_system.l3cache.mem_side::system.mem_ctrl.port        49152                       # Cumulative packet size per connected master and slave (bytes)
system.membus.pkt_size_system.l3cache.mem_side::total        49152                       # Cumulative packet size per connected master and slave (bytes)
system.membus.pkt_size::total                   49152                       # Cumulative packet size per connected master and slave (bytes)
system.membus.snoops                                0                       # Total snoops (count)
system.membus.snoopTraffic                          0                       # Total snoop traffic (bytes)
system.membus.snoop_fanout::samples               768                       # Request fanout histogram
system.membus.snoop_fanout::mean                    0                       # Request fanout histogram
system.membus.snoop_fanout::stdev                   0                       # Request fanout histogram
system.membus.snoop_fanout::underflows              0      0.00%      0.00% # Request fanout histogram
system.membus.snoop_fanout::0                     768    100.00%    100.00% # Request fanout histogram
system.membus.snoop_fanout::1                       0      0.00%    100.00% # Request fanout histogram
system.membus.snoop_fanout::overflows               0      0.00%    100.00% # Request fanout histogram
system.membus.snoop_fanout::min_value               0                       # Request fanout histogram
system.membus.snoop_fanout::max_value               0                       # Request fanout histogram
system.membus.snoop_fanout::total                 768                       # Request fanout histogram
system.membus.reqLayer0.occupancy              384000                       # Layer occupancy (ticks)
system.membus.reqLayer0.utilization               0.0                       # Layer utilization (%)
system.membus.respLayer0.occupancy            2088500                       # Layer occupancy (ticks)
system.membus.respLayer0.utilization              0.0                       # Layer utilization (%)

---------- End Simulation Statistics   ----------
