
---------- Begin Simulation Statistics ----------
sim_seconds                                  0.005337                       # Number of seconds simulated
sim_ticks                                  5336508000                       # Number of ticks simulated
final_tick                                 5336508000                       # Number of ticks from beginning of simulation (restored from checkpoints and never reset)
sim_freq                                 1000000000000                       # Frequency of simulated ticks
host_inst_rate                                  82864                       # Simulator instruction rate (inst/s)
host_op_rate                                   116040                       # Simulator op (including micro ops) rate (op/s)
host_tick_rate                               44647463                       # Simulator tick rate (ticks/s)
host_mem_usage                                 670916                       # Number of bytes of host memory used
host_seconds                                   119.53                       # Real time elapsed on the host
sim_insts                                     9904383                       # Number of instructions simulated
sim_ops                                      13869776                       # Number of ops (including micro ops) simulated
system.clk_domain.voltage_domain.voltage            1                       # Voltage in Volts
system.clk_domain.clock                           500                       # Clock period in ticks
system.mem_ctrl.pwrStateResidencyTicks::UNDEFINED   5336508000                       # Cumulative time (in ticks) in various power states
system.mem_ctrl.bytes_read::.cpu.inst           30784                       # Number of bytes read from this memory
system.mem_ctrl.bytes_read::.cpu.data           54272                       # Number of bytes read from this memory
system.mem_ctrl.bytes_read::total               85056                       # Number of bytes read from this memory
system.mem_ctrl.bytes_inst_read::.cpu.inst        30784                       # Number of instructions bytes read from this memory
system.mem_ctrl.bytes_inst_read::total          30784                       # Number of instructions bytes read from this memory
system.mem_ctrl.num_reads::.cpu.inst              481                       # Number of read requests responded to by this memory
system.mem_ctrl.num_reads::.cpu.data              848                       # Number of read requests responded to by this memory
system.mem_ctrl.num_reads::total                 1329                       # Number of read requests responded to by this memory
system.mem_ctrl.bw_read::.cpu.inst            5768566                       # Total read bandwidth from this memory (bytes/s)
system.mem_ctrl.bw_read::.cpu.data           10169946                       # Total read bandwidth from this memory (bytes/s)
system.mem_ctrl.bw_read::total               15938513                       # Total read bandwidth from this memory (bytes/s)
system.mem_ctrl.bw_inst_read::.cpu.inst       5768566                       # Instruction read bandwidth from this memory (bytes/s)
system.mem_ctrl.bw_inst_read::total           5768566                       # Instruction read bandwidth from this memory (bytes/s)
system.mem_ctrl.bw_total::.cpu.inst           5768566                       # Total bandwidth to/from this memory (bytes/s)
system.mem_ctrl.bw_total::.cpu.data          10169946                       # Total bandwidth to/from this memory (bytes/s)
system.mem_ctrl.bw_total::total              15938513                       # Total bandwidth to/from this memory (bytes/s)
system.mem_ctrl.avgPriority_.cpu.inst::samples       482.00                       # Average QoS priority value for accepted requests
system.mem_ctrl.avgPriority_.cpu.data::samples       848.00                       # Average QoS priority value for accepted requests
system.mem_ctrl.priorityMinLatency       0.000000018750                       # per QoS priority minimum request to response latency (s)
system.mem_ctrl.priorityMaxLatency       0.000001099750                       # per QoS priority maximum request to response latency (s)
system.mem_ctrl.numReadWriteTurnArounds             0                       # Number of turnarounds from READ to WRITE
system.mem_ctrl.numWriteReadTurnArounds             0                       # Number of turnarounds from WRITE to READ
system.mem_ctrl.numStayReadState                 2702                       # Number of times bus staying in READ state
system.mem_ctrl.numStayWriteState                   0                       # Number of times bus staying in WRITE state
system.mem_ctrl.readReqs                         1330                       # Number of read requests accepted
system.mem_ctrl.writeReqs                           0                       # Number of write requests accepted
system.mem_ctrl.readBursts                       1330                       # Number of DRAM read bursts, including those serviced by the write queue
system.mem_ctrl.writeBursts                         0                       # Number of DRAM write bursts, including those merged in the write queue
system.mem_ctrl.bytesReadDRAM                   85120                       # Total number of bytes read from DRAM
system.mem_ctrl.bytesReadWrQ                        0                       # Total number of bytes read from write queue
system.mem_ctrl.bytesWritten                        0                       # Total number of bytes written to DRAM
system.mem_ctrl.bytesReadSys                    85120                       # Total read bytes from the system interface side
system.mem_ctrl.bytesWrittenSys                     0                       # Total written bytes from the system interface side
system.mem_ctrl.servicedByWrQ                       0                       # Number of DRAM read bursts serviced by the write queue
system.mem_ctrl.mergedWrBursts                      0                       # Number of DRAM write bursts merged with an existing one
system.mem_ctrl.neitherReadNorWriteReqs             0                       # Number of requests that are neither read nor write
system.mem_ctrl.perBankRdBursts::0                186                       # Per bank write bursts
system.mem_ctrl.perBankRdBursts::1                 85                       # Per bank write bursts
system.mem_ctrl.perBankRdBursts::2                160                       # Per bank write bursts
system.mem_ctrl.perBankRdBursts::3                134                       # Per bank write bursts
system.mem_ctrl.perBankRdBursts::4                137                       # Per bank write bursts
system.mem_ctrl.perBankRdBursts::5                133                       # Per bank write bursts
system.mem_ctrl.perBankRdBursts::6                100                       # Per bank write bursts
system.mem_ctrl.perBankRdBursts::7                 59                       # Per bank write bursts
system.mem_ctrl.perBankRdBursts::8                  0                       # Per bank write bursts
system.mem_ctrl.perBankRdBursts::9                 10                       # Per bank write bursts
system.mem_ctrl.perBankRdBursts::10                10                       # Per bank write bursts
system.mem_ctrl.perBankRdBursts::11                30                       # Per bank write bursts
system.mem_ctrl.perBankRdBursts::12                39                       # Per bank write bursts
system.mem_ctrl.perBankRdBursts::13               101                       # Per bank write bursts
system.mem_ctrl.perBankRdBursts::14               101                       # Per bank write bursts
system.mem_ctrl.perBankRdBursts::15                45                       # Per bank write bursts
system.mem_ctrl.perBankWrBursts::0                  0                       # Per bank write bursts
system.mem_ctrl.perBankWrBursts::1                  0                       # Per bank write bursts
system.mem_ctrl.perBankWrBursts::2                  0                       # Per bank write bursts
system.mem_ctrl.perBankWrBursts::3                  0                       # Per bank write bursts
system.mem_ctrl.perBankWrBursts::4                  0                       # Per bank write bursts
system.mem_ctrl.perBankWrBursts::5                  0                       # Per bank write bursts
system.mem_ctrl.perBankWrBursts::6                  0                       # Per bank write bursts
system.mem_ctrl.perBankWrBursts::7                  0                       # Per bank write bursts
system.mem_ctrl.perBankWrBursts::8                  0                       # Per bank write bursts
system.mem_ctrl.perBankWrBursts::9                  0                       # Per bank write bursts
system.mem_ctrl.perBankWrBursts::10                 0                       # Per bank write bursts
system.mem_ctrl.perBankWrBursts::11                 0                       # Per bank write bursts
system.mem_ctrl.perBankWrBursts::12                 0                       # Per bank write bursts
system.mem_ctrl.perBankWrBursts::13                 0                       # Per bank write bursts
system.mem_ctrl.perBankWrBursts::14                 0                       # Per bank write bursts
system.mem_ctrl.perBankWrBursts::15                 0                       # Per bank write bursts
system.mem_ctrl.numRdRetry                          0                       # Number of times read queue was full causing retry
system.mem_ctrl.numWrRetry                          0                       # Number of times write queue was full causing retry
system.mem_ctrl.totGap                     5336468500                       # Total gap between requests
system.mem_ctrl.readPktSize::0                      0                       # Read request sizes (log2)
system.mem_ctrl.readPktSize::1                      0                       # Read request sizes (log2)
system.mem_ctrl.readPktSize::2                      0                       # Read request sizes (log2)
system.mem_ctrl.readPktSize::3                      0                       # Read request sizes (log2)
system.mem_ctrl.readPktSize::4                      0                       # Read request sizes (log2)
system.mem_ctrl.readPktSize::5                      0                       # Read request sizes (log2)
system.mem_ctrl.readPktSize::6                   1330                       # Read request sizes (log2)
system.mem_ctrl.writePktSize::0                     0                       # Write request sizes (log2)
system.mem_ctrl.writePktSize::1                     0                       # Write request sizes (log2)
system.mem_ctrl.writePktSize::2                     0                       # Write request sizes (log2)
system.mem_ctrl.writePktSize::3                     0                       # Write request sizes (log2)
system.mem_ctrl.writePktSize::4                     0                       # Write request sizes (log2)
system.mem_ctrl.writePktSize::5                     0                       # Write request sizes (log2)
system.mem_ctrl.writePktSize::6                     0                       # Write request sizes (log2)
system.mem_ctrl.rdQLenPdf::0                     1060                       # What read queue length does an incoming req see
system.mem_ctrl.rdQLenPdf::1                      200                       # What read queue length does an incoming req see
system.mem_ctrl.rdQLenPdf::2                       60                       # What read queue length does an incoming req see
system.mem_ctrl.rdQLenPdf::3                        8                       # What read queue length does an incoming req see
system.mem_ctrl.rdQLenPdf::4                        2                       # What read queue length does an incoming req see
system.mem_ctrl.rdQLenPdf::5                        0                       # What read queue length does an incoming req see
system.mem_ctrl.rdQLenPdf::6                        0                       # What read queue length does an incoming req see
system.mem_ctrl.rdQLenPdf::7                        0                       # What read queue length does an incoming req see
system.mem_ctrl.rdQLenPdf::8                        0                       # What read queue length does an incoming req see
system.mem_ctrl.rdQLenPdf::9                        0                       # What read queue length does an incoming req see
system.mem_ctrl.rdQLenPdf::10                       0                       # What read queue length does an incoming req see
system.mem_ctrl.rdQLenPdf::11                       0                       # What read queue length does an incoming req see
system.mem_ctrl.rdQLenPdf::12                       0                       # What read queue length does an incoming req see
system.mem_ctrl.rdQLenPdf::13                       0                       # What read queue length does an incoming req see
system.mem_ctrl.rdQLenPdf::14                       0                       # What read queue length does an incoming req see
system.mem_ctrl.rdQLenPdf::15                       0                       # What read queue length does an incoming req see
system.mem_ctrl.rdQLenPdf::16                       0                       # What read queue length does an incoming req see
system.mem_ctrl.rdQLenPdf::17                       0                       # What read queue length does an incoming req see
system.mem_ctrl.rdQLenPdf::18                       0                       # What read queue length does an incoming req see
system.mem_ctrl.rdQLenPdf::19                       0                       # What read queue length does an incoming req see
system.mem_ctrl.rdQLenPdf::20                       0                       # What read queue length does an incoming req see
system.mem_ctrl.rdQLenPdf::21                       0                       # What read queue length does an incoming req see
system.mem_ctrl.rdQLenPdf::22                       0                       # What read queue length does an incoming req see
system.mem_ctrl.rdQLenPdf::23                       0                       # What read queue length does an incoming req see
system.mem_ctrl.rdQLenPdf::24                       0                       # What read queue length does an incoming req see
system.mem_ctrl.rdQLenPdf::25                       0                       # What read queue length does an incoming req see
system.mem_ctrl.rdQLenPdf::26                       0                       # What read queue length does an incoming req see
system.mem_ctrl.rdQLenPdf::27                       0                       # What read queue length does an incoming req see
system.mem_ctrl.rdQLenPdf::28                       0                       # What read queue length does an incoming req see
system.mem_ctrl.rdQLenPdf::29                       0                       # What read queue length does an incoming req see
system.mem_ctrl.rdQLenPdf::30                       0                       # What read queue length does an incoming req see
system.mem_ctrl.rdQLenPdf::31                       0                       # What read queue length does an incoming req see
system.mem_ctrl.wrQLenPdf::0                        0                       # What write queue length does an incoming req see
system.mem_ctrl.wrQLenPdf::1                        0                       # What write queue length does an incoming req see
system.mem_ctrl.wrQLenPdf::2                        0                       # What write queue length does an incoming req see
system.mem_ctrl.wrQLenPdf::3                        0                       # What write queue length does an incoming req see
system.mem_ctrl.wrQLenPdf::4                        0                       # What write queue length does an incoming req see
system.mem_ctrl.wrQLenPdf::5                        0                       # What write queue length does an incoming req see
system.mem_ctrl.wrQLenPdf::6                        0                       # What write queue length does an incoming req see
system.mem_ctrl.wrQLenPdf::7                        0                       # What write queue length does an incoming req see
system.mem_ctrl.wrQLenPdf::8                        0                       # What write queue length does an incoming req see
system.mem_ctrl.wrQLenPdf::9                        0                       # What write queue length does an incoming req see
system.mem_ctrl.wrQLenPdf::10                       0                       # What write queue length does an incoming req see
system.mem_ctrl.wrQLenPdf::11                       0                       # What write queue length does an incoming req see
system.mem_ctrl.wrQLenPdf::12                       0                       # What write queue length does an incoming req see
system.mem_ctrl.wrQLenPdf::13                       0                       # What write queue length does an incoming req see
system.mem_ctrl.wrQLenPdf::14                       0                       # What write queue length does an incoming req see
system.mem_ctrl.wrQLenPdf::15                       0                       # What write queue length does an incoming req see
system.mem_ctrl.wrQLenPdf::16                       0                       # What write queue length does an incoming req see
system.mem_ctrl.wrQLenPdf::17                       0                       # What write queue length does an incoming req see
system.mem_ctrl.wrQLenPdf::18                       0                       # What write queue length does an incoming req see
system.mem_ctrl.wrQLenPdf::19                       0                       # What write queue length does an incoming req see
system.mem_ctrl.wrQLenPdf::20                       0                       # What write queue length does an incoming req see
system.mem_ctrl.wrQLenPdf::21                       0                       # What write queue length does an incoming req see
system.mem_ctrl.wrQLenPdf::22                       0                       # What write queue length does an incoming req see
system.mem_ctrl.wrQLenPdf::23                       0                       # What write queue length does an incoming req see
system.mem_ctrl.wrQLenPdf::24                       0                       # What write queue length does an incoming req see
system.mem_ctrl.wrQLenPdf::25                       0                       # What write queue length does an incoming req see
system.mem_ctrl.wrQLenPdf::26                       0                       # What write queue length does an incoming req see
system.mem_ctrl.wrQLenPdf::27                       0                       # What write queue length does an incoming req see
system.mem_ctrl.wrQLenPdf::28                       0                       # What write queue length does an incoming req see
system.mem_ctrl.wrQLenPdf::29                       0                       # What write queue length does an incoming req see
system.mem_ctrl.wrQLenPdf::30                       0                       # What write queue length does an incoming req see
system.mem_ctrl.wrQLenPdf::31                       0                       # What write queue length does an incoming req see
system.mem_ctrl.wrQLenPdf::32                       0                       # What write queue length does an incoming req see
system.mem_ctrl.wrQLenPdf::33                       0                       # What write queue length does an incoming req see
system.mem_ctrl.wrQLenPdf::34                       0                       # What write queue length does an incoming req see
system.mem_ctrl.wrQLenPdf::35                       0                       # What write queue length does an incoming req see
system.mem_ctrl.wrQLenPdf::36                       0                       # What write queue length does an incoming req see
system.mem_ctrl.wrQLenPdf::37                       0                       # What write queue length does an incoming req see
system.mem_ctrl.wrQLenPdf::38                       0                       # What write queue length does an incoming req see
system.mem_ctrl.wrQLenPdf::39                       0                       # What write queue length does an incoming req see
system.mem_ctrl.wrQLenPdf::40                       0                       # What write queue length does an incoming req see
system.mem_ctrl.wrQLenPdf::41                       0                       # What write queue length does an incoming req see
system.mem_ctrl.wrQLenPdf::42                       0                       # What write queue length does an incoming req see
system.mem_ctrl.wrQLenPdf::43                       0                       # What write queue length does an incoming req see
system.mem_ctrl.wrQLenPdf::44                       0                       # What write queue length does an incoming req see
system.mem_ctrl.wrQLenPdf::45                       0                       # What write queue length does an incoming req see
system.mem_ctrl.wrQLenPdf::46                       0                       # What write queue length does an incoming req see
system.mem_ctrl.wrQLenPdf::47                       0                       # What write queue length does an incoming req see
system.mem_ctrl.wrQLenPdf::48                       0                       # What write queue length does an incoming req see
system.mem_ctrl.wrQLenPdf::49                       0                       # What write queue length does an incoming req see
system.mem_ctrl.wrQLenPdf::50                       0                       # What write queue length does an incoming req see
system.mem_ctrl.wrQLenPdf::51                       0                       # What write queue length does an incoming req see
system.mem_ctrl.wrQLenPdf::52                       0                       # What write queue length does an incoming req see
system.mem_ctrl.wrQLenPdf::53                       0                       # What write queue length does an incoming req see
system.mem_ctrl.wrQLenPdf::54                       0                       # What write queue length does an incoming req see
system.mem_ctrl.wrQLenPdf::55                       0                       # What write queue length does an incoming req see
system.mem_ctrl.wrQLenPdf::56                       0                       # What write queue length does an incoming req see
system.mem_ctrl.wrQLenPdf::57                       0                       # What write queue length does an incoming req see
system.mem_ctrl.wrQLenPdf::58                       0                       # What write queue length does an incoming req see
system.mem_ctrl.wrQLenPdf::59                       0                       # What write queue length does an incoming req see
system.mem_ctrl.wrQLenPdf::60                       0                       # What write queue length does an incoming req see
system.mem_ctrl.wrQLenPdf::61                       0                       # What write queue length does an incoming req see
system.mem_ctrl.wrQLenPdf::62                       0                       # What write queue length does an incoming req see
system.mem_ctrl.wrQLenPdf::63                       0                       # What write queue length does an incoming req see
system.mem_ctrl.bytesPerActivate::samples          216                       # Bytes accessed per row activation
system.mem_ctrl.bytesPerActivate::mean     387.259259                       # Bytes accessed per row activation
system.mem_ctrl.bytesPerActivate::gmean    242.195057                       # Bytes accessed per row activation
system.mem_ctrl.bytesPerActivate::stdev    328.328887                       # Bytes accessed per row activation
system.mem_ctrl.bytesPerActivate::0-127            59     27.31%     27.31% # Bytes accessed per row activation
system.mem_ctrl.bytesPerActivate::128-255           45     20.83%     48.15% # Bytes accessed per row activation
system.mem_ctrl.bytesPerActivate::256-383           19      8.80%     56.94% # Bytes accessed per row activation
system.mem_ctrl.bytesPerActivate::384-511           16      7.41%     64.35% # Bytes accessed per row activation
system.mem_ctrl.bytesPerActivate::512-639            7      3.24%     67.59% # Bytes accessed per row activation
system.mem_ctrl.bytesPerActivate::640-767            8      3.70%     71.30% # Bytes accessed per row activation
system.mem_ctrl.bytesPerActivate::768-895           48     22.22%     93.52% # Bytes accessed per row activation
system.mem_ctrl.bytesPerActivate::896-1023            3      1.39%     94.91% # Bytes accessed per row activation
system.mem_ctrl.bytesPerActivate::1024-1151           11      5.09%    100.00% # Bytes accessed per row activation
system.mem_ctrl.bytesPerActivate::total           216                       # Bytes accessed per row activation
system.mem_ctrl.masterReadBytes::.cpu.inst        30848                       # Per-master bytes read from memory
system.mem_ctrl.masterReadBytes::.cpu.data        54272                       # Per-master bytes read from memory
system.mem_ctrl.masterReadRate::.cpu.inst 5780559.122182521038                       # Per-master bytes read from memory rate (Bytes/sec)
system.mem_ctrl.masterReadRate::.cpu.data 10169946.339441446587                       # Per-master bytes read from memory rate (Bytes/sec)
system.mem_ctrl.masterReadAccesses::.cpu.inst          482                       # Per-master read serviced memory accesses
system.mem_ctrl.masterReadAccesses::.cpu.data          848                       # Per-master read serviced memory accesses
system.mem_ctrl.masterReadTotalLat::.cpu.inst     17722750                       # Per-master read total memory access latency
system.mem_ctrl.masterReadTotalLat::.cpu.data     30075000                       # Per-master read total memory access latency
system.mem_ctrl.masterReadAvgLat::.cpu.inst     36769.19                       # Per-master read average memory access latency
system.mem_ctrl.masterReadAvgLat::.cpu.data     35465.80                       # Per-master read average memory access latency
system.mem_ctrl.totQLat                      22860250                       # Total ticks spent queuing
system.mem_ctrl.totMemAccLat                 47797750                       # Total ticks spent from burst creation until serviced by the DRAM
system.mem_ctrl.totBusLat                     6650000                       # Total ticks spent in databus transfers
system.mem_ctrl.avgQLat                      17188.16                       # Average queueing delay per DRAM burst
system.mem_ctrl.avgBusLat                     5000.00                       # Average bus latency per DRAM burst
system.mem_ctrl.avgMemAccLat                 35938.16                       # Average memory access latency per DRAM burst
system.mem_ctrl.avgRdBW                         15.95                       # Average DRAM read bandwidth in MiByte/s
system.mem_ctrl.avgWrBW                          0.00                       # Average achieved write bandwidth in MiByte/s
system.mem_ctrl.avgRdBWSys                      15.95                       # Average system read bandwidth in MiByte/s
system.mem_ctrl.avgWrBWSys                       0.00                       # Average system write bandwidth in MiByte/s
system.mem_ctrl.peakBW                       12800.00                       # Theoretical peak bandwidth in MiByte/s
system.mem_ctrl.busUtil                          0.12                       # Data bus utilization in percentage
system.mem_ctrl.busUtilRead                      0.12                       # Data bus utilization in percentage for reads
system.mem_ctrl.busUtilWrite                     0.00                       # Data bus utilization in percentage for writes
system.mem_ctrl.avgRdQLen                        1.00                       # Average read queue length when enqueuing
system.mem_ctrl.avgWrQLen                        0.00                       # Average write queue length when enqueuing
system.mem_ctrl.readRowHits                      1105                       # Number of row buffer hits during reads
system.mem_ctrl.writeRowHits                        0                       # Number of row buffer hits during writes
system.mem_ctrl.readRowHitRate                  83.08                       # Row buffer hit rate for reads
system.mem_ctrl.writeRowHitRate                   nan                       # Row buffer hit rate for writes
system.mem_ctrl.avgGap                     4012382.33                       # Average gap between requests
system.mem_ctrl.pageHitRate                     83.08                       # Row buffer hit rate, read and write combined
system.mem_ctrl_0.actEnergy                    971040                       # Energy for activate commands per rank (pJ)
system.mem_ctrl_0.preEnergy                    500940                       # Energy for precharge commands per rank (pJ)
system.mem_ctrl_0.readEnergy                  7097160                       # Energy for read commands per rank (pJ)
system.mem_ctrl_0.writeEnergy                       0                       # Energy for write commands per rank (pJ)
system.mem_ctrl_0.refreshEnergy          37493040.000000                       # Energy for refresh commands per rank (pJ)
system.mem_ctrl_0.actBackEnergy              18714240                       # Energy for active background per rank (pJ)
system.mem_ctrl_0.preBackEnergy               1117440                       # Energy for precharge background per rank (pJ)
system.mem_ctrl_0.actPowerDownEnergy        186838590                       # Energy for active power-down per rank (pJ)
system.mem_ctrl_0.prePowerDownEnergy         10540320                       # Energy for precharge power-down per rank (pJ)
system.mem_ctrl_0.selfRefreshEnergy        1166947020                       # Energy for self refresh per rank (pJ)
system.mem_ctrl_0.totalEnergy              1430219790                       # Total energy per rank (pJ)
system.mem_ctrl_0.averagePower             268.006680                       # Core power per rank (mW)
system.mem_ctrl_0.totalIdleTime            5291198250                       # Total Idle time Per DRAM Rank
system.mem_ctrl_0.memoryStateTime::IDLE       1194500                       # Time in different power states
system.mem_ctrl_0.memoryStateTime::REF       15860000                       # Time in different power states
system.mem_ctrl_0.memoryStateTime::SREF    4855374750                       # Time in different power states
system.mem_ctrl_0.memoryStateTime::PRE_PDN     27437500                       # Time in different power states
system.mem_ctrl_0.memoryStateTime::ACT       26882500                       # Time in different power states
system.mem_ctrl_0.memoryStateTime::ACT_PDN    409758750                       # Time in different power states
system.mem_ctrl_1.actEnergy                    635460                       # Energy for activate commands per rank (pJ)
system.mem_ctrl_1.preEnergy                    318780                       # Energy for precharge commands per rank (pJ)
system.mem_ctrl_1.readEnergy                  2399040                       # Energy for read commands per rank (pJ)
system.mem_ctrl_1.writeEnergy                       0                       # Energy for write commands per rank (pJ)
system.mem_ctrl_1.refreshEnergy          3687840.000000                       # Energy for refresh commands per rank (pJ)
system.mem_ctrl_1.actBackEnergy               4632390                       # Energy for active background per rank (pJ)
system.mem_ctrl_1.preBackEnergy                226560                       # Energy for precharge background per rank (pJ)
system.mem_ctrl_1.actPowerDownEnergy         14374260                       # Energy for active power-down per rank (pJ)
system.mem_ctrl_1.prePowerDownEnergy          3277920                       # Energy for precharge power-down per rank (pJ)
system.mem_ctrl_1.selfRefreshEnergy        1269120540                       # Energy for self refresh per rank (pJ)
system.mem_ctrl_1.totalEnergy              1298672790                       # Total energy per rank (pJ)
system.mem_ctrl_1.averagePower             243.356290                       # Core power per rank (mW)
system.mem_ctrl_1.totalIdleTime            5325757000                       # Total Idle time Per DRAM Rank
system.mem_ctrl_1.memoryStateTime::IDLE        412500                       # Time in different power states
system.mem_ctrl_1.memoryStateTime::REF        1560000                       # Time in different power states
system.mem_ctrl_1.memoryStateTime::SREF    5285700500                       # Time in different power states
system.mem_ctrl_1.memoryStateTime::PRE_PDN      8535000                       # Time in different power states
system.mem_ctrl_1.memoryStateTime::ACT        8778500                       # Time in different power states
system.mem_ctrl_1.memoryStateTime::ACT_PDN     31521500                       # Time in different power states
system.pwrStateResidencyTicks::UNDEFINED   5336508000                       # Cumulative time (in ticks) in various power states
system.cpu.branchPred.lookups                 1313840                       # Number of BP lookups
system.cpu.branchPred.condPredicted           1313840                       # Number of conditional branches predicted
system.cpu.branchPred.condIncorrect             74649                       # Number of conditional branches incorrect
system.cpu.branchPred.BTBLookups               736782                       # Number of BTB lookups
system.cpu.branchPred.BTBHits                       0                       # Number of BTB hits
system.cpu.branchPred.BTBCorrect                    0                       # Number of correct BTB predictions (this stat may not work properly.
system.cpu.branchPred.BTBHitPct              0.000000                       # BTB Hit Percentage
system.cpu.branchPred.usedRAS                  237489                       # Number of times the RAS was used to get a target.
system.cpu.branchPred.RASInCorrect                620                       # Number of incorrect RAS predictions.
system.cpu.branchPred.indirectLookups          736782                       # Number of indirect predictor lookups.
system.cpu.branchPred.indirectHits             622914                       # Number of indirect target hits.
system.cpu.branchPred.indirectMisses           113868                       # Number of indirect misses.
system.cpu.branchPredindirectMispredicted         1503                       # Number of mispredicted indirect branches.
system.cpu.dtb.walker.pwrStateResidencyTicks::UNDEFINED   5336508000                       # Cumulative time (in ticks) in various power states
system.cpu.dtb.rdAccesses                     4887155                       # TLB accesses on read requests
system.cpu.dtb.wrAccesses                     1466001                       # TLB accesses on write requests
system.cpu.dtb.rdMisses                           100                       # TLB misses on read requests
system.cpu.dtb.wrMisses                            27                       # TLB misses on write requests
system.cpu.apic_clk_domain.clock                 8000                       # Clock period in ticks
system.cpu.interrupts.pwrStateResidencyTicks::UNDEFINED   5336508000                       # Cumulative time (in ticks) in various power states
system.cpu.itb.walker.pwrStateResidencyTicks::UNDEFINED   5336508000                       # Cumulative time (in ticks) in various power states
system.cpu.itb.rdAccesses                           0                       # TLB accesses on read requests
system.cpu.itb.wrAccesses                     1328642                       # TLB accesses on write requests
system.cpu.itb.rdMisses                             0                       # TLB misses on read requests
system.cpu.itb.wrMisses                           163                       # TLB misses on write requests
system.cpu.workload.numSyscalls                    11                       # Number of system calls
system.cpu.pwrStateResidencyTicks::ON      5336508000                       # Cumulative time (in ticks) in various power states
system.cpu.numCycles                         10673017                       # number of cpu cycles simulated
system.cpu.numWorkItemsStarted                      0                       # number of work items this cpu started
system.cpu.numWorkItemsCompleted                    0                       # number of work items this cpu completed
system.cpu.fetch.icacheStallCycles              80238                       # Number of cycles fetch is stalled on an Icache miss
system.cpu.fetch.Insts                       13996615                       # Number of instructions fetch has processed
system.cpu.fetch.Branches                     1313840                       # Number of branches that fetch encountered
system.cpu.fetch.predictedBranches             860403                       # Number of branches that fetch has predicted taken
system.cpu.fetch.Cycles                      10493678                       # Number of cycles fetch has run and was not squashing or blocked
system.cpu.fetch.SquashCycles                  149930                       # Number of cycles fetch has spent squashing
system.cpu.fetch.MiscStallCycles                   82                       # Number of cycles fetch has spent waiting on interrupts, or bad addresses, or out of MSHRs
system.cpu.fetch.PendingTrapStallCycles          1191                       # Number of stall cycles due to pending traps
system.cpu.fetch.PendingQuiesceStallCycles           19                       # Number of stall cycles due to pending quiesce instructions
system.cpu.fetch.IcacheWaitRetryStallCycles            9                       # Number of stall cycles due to full MSHR
system.cpu.fetch.CacheLines                   1328520                       # Number of cache lines fetched
system.cpu.fetch.IcacheSquashes                   345                       # Number of outstanding Icache misses that were squashed
system.cpu.fetch.rateDist::samples           10650182                       # Number of instructions fetched each cycle (Total)
system.cpu.fetch.rateDist::mean              1.814877                       # Number of instructions fetched each cycle (Total)
system.cpu.fetch.rateDist::stdev             0.534330                       # Number of instructions fetched each cycle (Total)
system.cpu.fetch.rateDist::underflows               0      0.00%      0.00% # Number of instructions fetched each cycle (Total)
system.cpu.fetch.rateDist::0                   717058      6.73%      6.73% # Number of instructions fetched each cycle (Total)
system.cpu.fetch.rateDist::1                   537474      5.05%     11.78% # Number of instructions fetched each cycle (Total)
system.cpu.fetch.rateDist::2                  9395650     88.22%    100.00% # Number of instructions fetched each cycle (Total)
system.cpu.fetch.rateDist::overflows                0      0.00%    100.00% # Number of instructions fetched each cycle (Total)
system.cpu.fetch.rateDist::min_value                0                       # Number of instructions fetched each cycle (Total)
system.cpu.fetch.rateDist::max_value                2                       # Number of instructions fetched each cycle (Total)
system.cpu.fetch.rateDist::total             10650182                       # Number of instructions fetched each cycle (Total)
system.cpu.fetch.branchRate                  0.123099                       # Number of branch fetches per cycle
system.cpu.fetch.rate                        1.311402                       # Number of inst fetches per cycle
system.cpu.decode.IdleCycles                   703737                       # Number of cycles decode is idle
system.cpu.decode.BlockedCycles                903790                       # Number of cycles decode is blocked
system.cpu.decode.RunCycles                   8330206                       # Number of cycles decode is running
system.cpu.decode.UnblockCycles                637484                       # Number of cycles decode is unblocking
system.cpu.decode.SquashCycles                  74965                       # Number of cycles decode is squashing
system.cpu.decode.DecodedInsts               17540724                       # Number of instructions handled by decode
system.cpu.decode.SquashedInsts                276669                       # Number of squashed instructions handled by decode
system.cpu.rename.SquashCycles                  74965                       # Number of cycles rename is squashing
system.cpu.rename.IdleCycles                  1178835                       # Number of cycles rename is idle
system.cpu.rename.BlockCycles                  266694                       # Number of cycles rename is blocking
system.cpu.rename.serializeStallCycles           1817                       # count of cycles rename stalled for serializing inst
system.cpu.rename.RunCycles                   8474812                       # Number of cycles rename is running
system.cpu.rename.UnblockCycles                653059                       # Number of cycles rename is unblocking
system.cpu.rename.RenamedInsts               17257938                       # Number of instructions processed by rename
system.cpu.rename.SquashedInsts                140758                       # Number of squashed instructions processed by rename
system.cpu.rename.ROBFullEvents                    31                       # Number of times rename has blocked due to ROB full
system.cpu.rename.IQFullEvents                 172390                       # Number of times rename has blocked due to IQ full
system.cpu.rename.LQFullEvents                 122401                       # Number of times rename has blocked due to LQ full
system.cpu.rename.SQFullEvents                 131988                       # Number of times rename has blocked due to SQ full
system.cpu.rename.FullRegisterEvents               29                       # Number of times there has been no free registers
system.cpu.rename.RenamedOperands            19125703                       # Number of destination operands rename has renamed
system.cpu.rename.RenameLookups              43676494                       # Number of register rename lookups that rename has made
system.cpu.rename.int_rename_lookups         30578052                       # Number of integer rename lookups
system.cpu.rename.fp_rename_lookups              3874                       # Number of floating rename lookups
system.cpu.rename.CommittedMaps              15483055                       # Number of HB maps that are committed
system.cpu.rename.UndoneMaps                  3642648                       # Number of HB maps that are undone due to squashing
system.cpu.rename.serializingInsts                 30                       # count of serializing insts renamed
system.cpu.rename.tempSerializingInsts             26                       # count of temporary serializing insts renamed
system.cpu.rename.skidInsts                    724616                       # count of insts added to the skid buffer
system.cpu.memDep0.insertedLoads              5184186                       # Number of loads inserted to the mem dependence unit.
system.cpu.memDep0.insertedStores             1743031                       # Number of stores inserted to the mem dependence unit.
system.cpu.memDep0.conflictingLoads           1709276                       # Number of conflicting loads.
system.cpu.memDep0.conflictingStores           412779                       # Number of conflicting stores.
system.cpu.iq.iqInstsAdded                   16976343                       # Number of instructions added to the IQ (excludes non-spec)
system.cpu.iq.iqNonSpecInstsAdded                 142                       # Number of non-speculative instructions added to the IQ
system.cpu.iq.iqInstsIssued                  15849832                       # Number of instructions issued
system.cpu.iq.iqSquashedInstsIssued             61272                       # Number of squashed instructions issued
system.cpu.iq.iqSquashedInstsExamined         3106708                       # Number of squashed instructions iterated over during squash; mainly for profiling
system.cpu.iq.iqSquashedOperandsExamined      4074757                       # Number of squashed operands that are examined and possibly removed from graph
system.cpu.iq.iqSquashedNonSpecRemoved            131                       # Number of squashed non-spec instructions that were removed
system.cpu.iq.issued_per_cycle::samples      10650182                       # Number of insts issued each cycle
system.cpu.iq.issued_per_cycle::mean         1.488222                       # Number of insts issued each cycle
system.cpu.iq.issued_per_cycle::stdev        0.698073                       # Number of insts issued each cycle
system.cpu.iq.issued_per_cycle::underflows            0      0.00%      0.00% # Number of insts issued each cycle
system.cpu.iq.issued_per_cycle::0             1264417     11.87%     11.87% # Number of insts issued each cycle
system.cpu.iq.issued_per_cycle::1             2921698     27.43%     39.31% # Number of insts issued each cycle
system.cpu.iq.issued_per_cycle::2             6464067     60.69%    100.00% # Number of insts issued each cycle
system.cpu.iq.issued_per_cycle::overflows            0      0.00%    100.00% # Number of insts issued each cycle
system.cpu.iq.issued_per_cycle::min_value            0                       # Number of insts issued each cycle
system.cpu.iq.issued_per_cycle::max_value            2                       # Number of insts issued each cycle
system.cpu.iq.issued_per_cycle::total        10650182                       # Number of insts issued each cycle
system.cpu.iq.fu_full::No_OpClass                   0      0.00%      0.00% # attempts to use FU when none available
system.cpu.iq.fu_full::IntAlu                       0      0.00%      0.00% # attempts to use FU when none available
system.cpu.iq.fu_full::IntMult                      0      0.00%      0.00% # attempts to use FU when none available
system.cpu.iq.fu_full::IntDiv                       0      0.00%      0.00% # attempts to use FU when none available
system.cpu.iq.fu_full::FloatAdd                     0      0.00%      0.00% # attempts to use FU when none available
system.cpu.iq.fu_full::FloatCmp                     0      0.00%      0.00% # attempts to use FU when none available
system.cpu.iq.fu_full::FloatCvt                     0      0.00%      0.00% # attempts to use FU when none available
system.cpu.iq.fu_full::FloatMult                    0      0.00%      0.00% # attempts to use FU when none available
system.cpu.iq.fu_full::FloatMultAcc                 0      0.00%      0.00% # attempts to use FU when none available
system.cpu.iq.fu_full::FloatDiv                     0      0.00%      0.00% # attempts to use FU when none available
system.cpu.iq.fu_full::FloatMisc                    0      0.00%      0.00% # attempts to use FU when none available
system.cpu.iq.fu_full::FloatSqrt                    0      0.00%      0.00% # attempts to use FU when none available
system.cpu.iq.fu_full::SimdAdd                    247      0.01%      0.01% # attempts to use FU when none available
system.cpu.iq.fu_full::SimdAddAcc                   0      0.00%      0.01% # attempts to use FU when none available
system.cpu.iq.fu_full::SimdAlu                     52      0.00%      0.01% # attempts to use FU when none available
system.cpu.iq.fu_full::SimdCmp                      0      0.00%      0.01% # attempts to use FU when none available
system.cpu.iq.fu_full::SimdCvt                     19      0.00%      0.01% # attempts to use FU when none available
system.cpu.iq.fu_full::SimdMisc                   119      0.00%      0.01% # attempts to use FU when none available
system.cpu.iq.fu_full::SimdMult                     0      0.00%      0.01% # attempts to use FU when none available
system.cpu.iq.fu_full::SimdMultAcc                  0      0.00%      0.01% # attempts to use FU when none available
system.cpu.iq.fu_full::SimdShift                  124      0.00%      0.02% # attempts to use FU when none available
system.cpu.iq.fu_full::SimdShiftAcc                 0      0.00%      0.02% # attempts to use FU when none available
system.cpu.iq.fu_full::SimdSqrt                     0      0.00%      0.02% # attempts to use FU when none available
system.cpu.iq.fu_full::SimdFloatAdd                 0      0.00%      0.02% # attempts to use FU when none available
system.cpu.iq.fu_full::SimdFloatAlu                 0      0.00%      0.02% # attempts to use FU when none available
system.cpu.iq.fu_full::SimdFloatCmp                 0      0.00%      0.02% # attempts to use FU when none available
system.cpu.iq.fu_full::SimdFloatCvt                 0      0.00%      0.02% # attempts to use FU when none available
system.cpu.iq.fu_full::SimdFloatDiv                 0      0.00%      0.02% # attempts to use FU when none available
system.cpu.iq.fu_full::SimdFloatMisc                0      0.00%      0.02% # attempts to use FU when none available
system.cpu.iq.fu_full::SimdFloatMult                0      0.00%      0.02% # attempts to use FU when none available
system.cpu.iq.fu_full::SimdFloatMultAcc             0      0.00%      0.02% # attempts to use FU when none available
system.cpu.iq.fu_full::SimdFloatSqrt                0      0.00%      0.02% # attempts to use FU when none available
system.cpu.iq.fu_full::SimdAes                      0      0.00%      0.02% # attempts to use FU when none available
system.cpu.iq.fu_full::SimdAesMix                   0      0.00%      0.02% # attempts to use FU when none available
system.cpu.iq.fu_full::SimdSha1Hash                 0      0.00%      0.02% # attempts to use FU when none available
system.cpu.iq.fu_full::SimdSha1Hash2                0      0.00%      0.02% # attempts to use FU when none available
system.cpu.iq.fu_full::SimdSha256Hash               0      0.00%      0.02% # attempts to use FU when none available
system.cpu.iq.fu_full::SimdSha256Hash2              0      0.00%      0.02% # attempts to use FU when none available
system.cpu.iq.fu_full::SimdShaSigma2                0      0.00%      0.02% # attempts to use FU when none available
system.cpu.iq.fu_full::SimdShaSigma3                0      0.00%      0.02% # attempts to use FU when none available
system.cpu.iq.fu_full::MemRead                2773419     90.45%     90.47% # attempts to use FU when none available
system.cpu.iq.fu_full::MemWrite                292174      9.53%    100.00% # attempts to use FU when none available
system.cpu.iq.fu_full::FloatMemRead                 0      0.00%    100.00% # attempts to use FU when none available
system.cpu.iq.fu_full::FloatMemWrite                0      0.00%    100.00% # attempts to use FU when none available
system.cpu.iq.fu_full::IprAccess                    0      0.00%    100.00% # attempts to use FU when none available
system.cpu.iq.fu_full::InstPrefetch                 0      0.00%    100.00% # attempts to use FU when none available
system.cpu.iq.FU_type_0::No_OpClass               489      0.00%      0.00% # Type of FU issued
system.cpu.iq.FU_type_0::IntAlu               9421962     59.45%     59.45% # Type of FU issued
system.cpu.iq.FU_type_0::IntMult                  126      0.00%     59.45% # Type of FU issued
system.cpu.iq.FU_type_0::IntDiv                    16      0.00%     59.45% # Type of FU issued
system.cpu.iq.FU_type_0::FloatAdd                  11      0.00%     59.45% # Type of FU issued
system.cpu.iq.FU_type_0::FloatCmp                   0      0.00%     59.45% # Type of FU issued
system.cpu.iq.FU_type_0::FloatCvt                   0      0.00%     59.45% # Type of FU issued
system.cpu.iq.FU_type_0::FloatMult                  0      0.00%     59.45% # Type of FU issued
system.cpu.iq.FU_type_0::FloatMultAcc               0      0.00%     59.45% # Type of FU issued
system.cpu.iq.FU_type_0::FloatDiv                   0      0.00%     59.45% # Type of FU issued
system.cpu.iq.FU_type_0::FloatMisc                  0      0.00%     59.45% # Type of FU issued
system.cpu.iq.FU_type_0::FloatSqrt                  0      0.00%     59.45% # Type of FU issued
system.cpu.iq.FU_type_0::SimdAdd                  375      0.00%     59.45% # Type of FU issued
system.cpu.iq.FU_type_0::SimdAddAcc                 0      0.00%     59.45% # Type of FU issued
system.cpu.iq.FU_type_0::SimdAlu                   72      0.00%     59.45% # Type of FU issued
system.cpu.iq.FU_type_0::SimdCmp                    0      0.00%     59.45% # Type of FU issued
system.cpu.iq.FU_type_0::SimdCvt                  108      0.00%     59.45% # Type of FU issued
system.cpu.iq.FU_type_0::SimdMisc                 224      0.00%     59.45% # Type of FU issued
system.cpu.iq.FU_type_0::SimdMult                   0      0.00%     59.45% # Type of FU issued
system.cpu.iq.FU_type_0::SimdMultAcc                0      0.00%     59.45% # Type of FU issued
system.cpu.iq.FU_type_0::SimdShift                186      0.00%     59.46% # Type of FU issued
system.cpu.iq.FU_type_0::SimdShiftAcc               0      0.00%     59.46% # Type of FU issued
system.cpu.iq.FU_type_0::SimdSqrt                   0      0.00%     59.46% # Type of FU issued
system.cpu.iq.FU_type_0::SimdFloatAdd               0      0.00%     59.46% # Type of FU issued
system.cpu.iq.FU_type_0::SimdFloatAlu               0      0.00%     59.46% # Type of FU issued
system.cpu.iq.FU_type_0::SimdFloatCmp               0      0.00%     59.46% # Type of FU issued
system.cpu.iq.FU_type_0::SimdFloatCvt               0      0.00%     59.46% # Type of FU issued
system.cpu.iq.FU_type_0::SimdFloatDiv               0      0.00%     59.46% # Type of FU issued
system.cpu.iq.FU_type_0::SimdFloatMisc              0      0.00%     59.46% # Type of FU issued
system.cpu.iq.FU_type_0::SimdFloatMult              0      0.00%     59.46% # Type of FU issued
system.cpu.iq.FU_type_0::SimdFloatMultAcc            0      0.00%     59.46% # Type of FU issued
system.cpu.iq.FU_type_0::SimdFloatSqrt              0      0.00%     59.46% # Type of FU issued
system.cpu.iq.FU_type_0::SimdAes                    0      0.00%     59.46% # Type of FU issued
system.cpu.iq.FU_type_0::SimdAesMix                 0      0.00%     59.46% # Type of FU issued
system.cpu.iq.FU_type_0::SimdSha1Hash               0      0.00%     59.46% # Type of FU issued
system.cpu.iq.FU_type_0::SimdSha1Hash2              0      0.00%     59.46% # Type of FU issued
system.cpu.iq.FU_type_0::SimdSha256Hash             0      0.00%     59.46% # Type of FU issued
system.cpu.iq.FU_type_0::SimdSha256Hash2            0      0.00%     59.46% # Type of FU issued
system.cpu.iq.FU_type_0::SimdShaSigma2              0      0.00%     59.46% # Type of FU issued
system.cpu.iq.FU_type_0::SimdShaSigma3              0      0.00%     59.46% # Type of FU issued
system.cpu.iq.FU_type_0::MemRead              4929411     31.10%     90.56% # Type of FU issued
system.cpu.iq.FU_type_0::MemWrite             1496364      9.44%    100.00% # Type of FU issued
system.cpu.iq.FU_type_0::FloatMemRead              62      0.00%    100.00% # Type of FU issued
system.cpu.iq.FU_type_0::FloatMemWrite            426      0.00%    100.00% # Type of FU issued
system.cpu.iq.FU_type_0::IprAccess                  0      0.00%    100.00% # Type of FU issued
system.cpu.iq.FU_type_0::InstPrefetch               0      0.00%    100.00% # Type of FU issued
system.cpu.iq.FU_type_0::total               15849832                       # Type of FU issued
system.cpu.iq.rate                           1.485038                       # Inst issue rate
system.cpu.iq.fu_busy_cnt                     3066154                       # FU busy when requested
system.cpu.iq.fu_busy_rate                   0.193450                       # FU busy rate (busy events/executed inst)
system.cpu.iq.int_inst_queue_reads           45472752                       # Number of integer instruction queue reads
system.cpu.iq.int_inst_queue_writes          20081363                       # Number of integer instruction queue writes
system.cpu.iq.int_inst_queue_wakeup_accesses     15497705                       # Number of integer instruction queue wakeup accesses
system.cpu.iq.fp_inst_queue_reads                4520                       # Number of floating instruction queue reads
system.cpu.iq.fp_inst_queue_writes               2097                       # Number of floating instruction queue writes
system.cpu.iq.fp_inst_queue_wakeup_accesses         1964                       # Number of floating instruction queue wakeup accesses
system.cpu.iq.vec_inst_queue_reads                  0                       # Number of vector instruction queue reads
system.cpu.iq.vec_inst_queue_writes                 0                       # Number of vector instruction queue writes
system.cpu.iq.vec_inst_queue_wakeup_accesses            0                       # Number of vector instruction queue wakeup accesses
system.cpu.iq.int_alu_accesses               18912957                       # Number of integer alu accesses
system.cpu.iq.fp_alu_accesses                    2540                       # Number of floating point alu accesses
system.cpu.iq.vec_alu_accesses                      0                       # Number of vector alu accesses
system.cpu.iew.lsq.thread0.forwLoads          1817935                       # Number of loads that had data forwarded from stores
system.cpu.iew.lsq.thread0.invAddrLoads             0                       # Number of loads ignored due to an invalid address
system.cpu.iew.lsq.thread0.squashedLoads       953460                       # Number of loads squashed
system.cpu.iew.lsq.thread0.ignoredResponses         3418                       # Number of memory responses ignored because the instruction is squashed
system.cpu.iew.lsq.thread0.memOrderViolation          267                       # Number of memory ordering violations
system.cpu.iew.lsq.thread0.squashedStores       337369                       # Number of stores squashed
system.cpu.iew.lsq.thread0.invAddrSwpfs             0                       # Number of software prefetches ignored due to an invalid address
system.cpu.iew.lsq.thread0.blockedLoads             0                       # Number of blocked loads due to partial load-store forwarding
system.cpu.iew.lsq.thread0.rescheduledLoads            0                       # Number of loads that were rescheduled
system.cpu.iew.lsq.thread0.cacheBlocked            13                       # Number of times an access to memory failed due to the cache being blocked
system.cpu.iew.iewIdleCycles                        0                       # Number of cycles IEW is idle
system.cpu.iew.iewSquashCycles                  74965                       # Number of cycles IEW is squashing
system.cpu.iew.iewBlockCycles                  157165                       # Number of cycles IEW is blocking
system.cpu.iew.iewUnblockCycles                  3648                       # Number of cycles IEW is unblocking
system.cpu.iew.iewDispatchedInsts            16976485                       # Number of instructions dispatched to IQ
system.cpu.iew.iewDispSquashedInsts              2763                       # Number of squashed instructions skipped by dispatch
system.cpu.iew.iewDispLoadInsts               5184186                       # Number of dispatched load instructions
system.cpu.iew.iewDispStoreInsts              1743031                       # Number of dispatched store instructions
system.cpu.iew.iewDispNonSpecInsts                 61                       # Number of dispatched non-speculative instructions
system.cpu.iew.iewIQFullEvents                     35                       # Number of times the IQ has become full, causing a stall
system.cpu.iew.iewLSQFullEvents                  3391                       # Number of times the LSQ has become full, causing a stall
system.cpu.iew.memOrderViolationEvents            267                       # Number of memory order violations
system.cpu.iew.predictedTakenIncorrect          41437                       # Number of branches that were predicted taken incorrectly
system.cpu.iew.predictedNotTakenIncorrect        41514                       # Number of branches that were predicted not taken incorrectly
system.cpu.iew.branchMispredicts                82951                       # Number of branch mispredicts detected at execute
system.cpu.iew.iewExecutedInsts              15629121                       # Number of executed instructions
system.cpu.iew.iewExecLoadInsts               4887150                       # Number of load instructions executed
system.cpu.iew.iewExecSquashedInsts            220711                       # Number of squashed instructions skipped in execute
system.cpu.iew.exec_swp                             0                       # number of swp insts executed
system.cpu.iew.exec_nop                             0                       # number of nop insts executed
system.cpu.iew.exec_refs                      6353151                       # number of memory reference insts executed
system.cpu.iew.exec_branches                  1020853                       # Number of branches executed
system.cpu.iew.exec_stores                    1466001                       # Number of stores executed
system.cpu.iew.exec_rate                     1.464358                       # Inst execution rate
system.cpu.iew.wb_sent                       15587539                       # cumulative count of insts sent to commit
system.cpu.iew.wb_count                      15499669                       # cumulative count of insts written-back
system.cpu.iew.wb_producers                  12567366                       # num instructions producing a value
system.cpu.iew.wb_consumers                  16894285                       # num instructions consuming a value
system.cpu.iew.wb_rate                       1.452229                       # insts written-back per cycle
system.cpu.iew.wb_fanout                     0.743883                       # average fanout of values written-back
system.cpu.commit.commitSquashedInsts         2965810                       # The number of squashed insts skipped by commit
system.cpu.commit.commitNonSpecStalls              11                       # The number of times commit has been forced to stall to communicate backwards
system.cpu.commit.branchMispredicts             74726                       # The number of times a branch was mispredicted
system.cpu.commit.committed_per_cycle::samples     10429154                       # Number of insts commited each cycle
system.cpu.commit.committed_per_cycle::mean     1.329904                       # Number of insts commited each cycle
system.cpu.commit.committed_per_cycle::stdev     0.887802                       # Number of insts commited each cycle
system.cpu.commit.committed_per_cycle::underflows            0      0.00%      0.00% # Number of insts commited each cycle
system.cpu.commit.committed_per_cycle::0      2957318     28.36%     28.36% # Number of insts commited each cycle
system.cpu.commit.committed_per_cycle::1      1073896     10.30%     38.65% # Number of insts commited each cycle
system.cpu.commit.committed_per_cycle::2      6397940     61.35%    100.00% # Number of insts commited each cycle
system.cpu.commit.committed_per_cycle::overflows            0      0.00%    100.00% # Number of insts commited each cycle
system.cpu.commit.committed_per_cycle::min_value            0                       # Number of insts commited each cycle
system.cpu.commit.committed_per_cycle::max_value            2                       # Number of insts commited each cycle
system.cpu.commit.committed_per_cycle::total     10429154                       # Number of insts commited each cycle
system.cpu.commit.committedInsts              9904383                       # Number of instructions committed
system.cpu.commit.committedOps               13869776                       # Number of ops (including micro ops) committed
system.cpu.commit.swp_count                         0                       # Number of s/w prefetches committed
system.cpu.commit.refs                        5636388                       # Number of memory references committed
system.cpu.commit.loads                       4230726                       # Number of loads committed
system.cpu.commit.membars                           0                       # Number of memory barriers committed
system.cpu.commit.branches                     993446                       # Number of branches committed
system.cpu.commit.vec_insts                         0                       # Number of committed Vector instructions.
system.cpu.commit.fp_insts                       1935                       # Number of committed floating point instructions.
system.cpu.commit.int_insts                  13740604                       # Number of committed integer instructions.
system.cpu.commit.function_calls               169177                       # Number of function calls committed.
system.cpu.commit.op_class_0::No_OpClass          101      0.00%      0.00% # Class of committed instruction
system.cpu.commit.op_class_0::IntAlu          8232189     59.35%     59.35% # Class of committed instruction
system.cpu.commit.op_class_0::IntMult             124      0.00%     59.36% # Class of committed instruction
system.cpu.commit.op_class_0::IntDiv               14      0.00%     59.36% # Class of committed instruction
system.cpu.commit.op_class_0::FloatAdd             10      0.00%     59.36% # Class of committed instruction
system.cpu.commit.op_class_0::FloatCmp              0      0.00%     59.36% # Class of committed instruction
system.cpu.commit.op_class_0::FloatCvt              0      0.00%     59.36% # Class of committed instruction
system.cpu.commit.op_class_0::FloatMult             0      0.00%     59.36% # Class of committed instruction
system.cpu.commit.op_class_0::FloatMultAcc            0      0.00%     59.36% # Class of committed instruction
system.cpu.commit.op_class_0::FloatDiv              0      0.00%     59.36% # Class of committed instruction
system.cpu.commit.op_class_0::FloatMisc             0      0.00%     59.36% # Class of committed instruction
system.cpu.commit.op_class_0::FloatSqrt             0      0.00%     59.36% # Class of committed instruction
system.cpu.commit.op_class_0::SimdAdd             374      0.00%     59.36% # Class of committed instruction
system.cpu.commit.op_class_0::SimdAddAcc            0      0.00%     59.36% # Class of committed instruction
system.cpu.commit.op_class_0::SimdAlu              68      0.00%     59.36% # Class of committed instruction
system.cpu.commit.op_class_0::SimdCmp               0      0.00%     59.36% # Class of committed instruction
system.cpu.commit.op_class_0::SimdCvt             108      0.00%     59.36% # Class of committed instruction
system.cpu.commit.op_class_0::SimdMisc            214      0.00%     59.36% # Class of committed instruction
system.cpu.commit.op_class_0::SimdMult              0      0.00%     59.36% # Class of committed instruction
system.cpu.commit.op_class_0::SimdMultAcc            0      0.00%     59.36% # Class of committed instruction
system.cpu.commit.op_class_0::SimdShift           186      0.00%     59.36% # Class of committed instruction
system.cpu.commit.op_class_0::SimdShiftAcc            0      0.00%     59.36% # Class of committed instruction
system.cpu.commit.op_class_0::SimdSqrt              0      0.00%     59.36% # Class of committed instruction
system.cpu.commit.op_class_0::SimdFloatAdd            0      0.00%     59.36% # Class of committed instruction
system.cpu.commit.op_class_0::SimdFloatAlu            0      0.00%     59.36% # Class of committed instruction
system.cpu.commit.op_class_0::SimdFloatCmp            0      0.00%     59.36% # Class of committed instruction
system.cpu.commit.op_class_0::SimdFloatCvt            0      0.00%     59.36% # Class of committed instruction
system.cpu.commit.op_class_0::SimdFloatDiv            0      0.00%     59.36% # Class of committed instruction
system.cpu.commit.op_class_0::SimdFloatMisc            0      0.00%     59.36% # Class of committed instruction
system.cpu.commit.op_class_0::SimdFloatMult            0      0.00%     59.36% # Class of committed instruction
system.cpu.commit.op_class_0::SimdFloatMultAcc            0      0.00%     59.36% # Class of committed instruction
system.cpu.commit.op_class_0::SimdFloatSqrt            0      0.00%     59.36% # Class of committed instruction
system.cpu.commit.op_class_0::SimdAes               0      0.00%     59.36% # Class of committed instruction
system.cpu.commit.op_class_0::SimdAesMix            0      0.00%     59.36% # Class of committed instruction
system.cpu.commit.op_class_0::SimdSha1Hash            0      0.00%     59.36% # Class of committed instruction
system.cpu.commit.op_class_0::SimdSha1Hash2            0      0.00%     59.36% # Class of committed instruction
system.cpu.commit.op_class_0::SimdSha256Hash            0      0.00%     59.36% # Class of committed instruction
system.cpu.commit.op_class_0::SimdSha256Hash2            0      0.00%     59.36% # Class of committed instruction
system.cpu.commit.op_class_0::SimdShaSigma2            0      0.00%     59.36% # Class of committed instruction
system.cpu.commit.op_class_0::SimdShaSigma3            0      0.00%     59.36% # Class of committed instruction
system.cpu.commit.op_class_0::MemRead         4230674     30.50%     89.86% # Class of committed instruction
system.cpu.commit.op_class_0::MemWrite        1405251     10.13%    100.00% # Class of committed instruction
system.cpu.commit.op_class_0::FloatMemRead           52      0.00%    100.00% # Class of committed instruction
system.cpu.commit.op_class_0::FloatMemWrite          411      0.00%    100.00% # Class of committed instruction
system.cpu.commit.op_class_0::IprAccess             0      0.00%    100.00% # Class of committed instruction
system.cpu.commit.op_class_0::InstPrefetch            0      0.00%    100.00% # Class of committed instruction
system.cpu.commit.op_class_0::total          13869776                       # Class of committed instruction
system.cpu.commit.bw_lim_events               6397940                       # number cycles where commit BW limit reached
system.cpu.rob.rob_reads                     20866800                       # The number of ROB reads
system.cpu.rob.rob_writes                    33892205                       # The number of ROB writes
system.cpu.timesIdled                             266                       # Number of times that the entire CPU went into an idle state and unscheduled itself
system.cpu.idleCycles                           22835                       # Total number of cycles that the CPU has spent unscheduled due to idling
system.cpu.committedInsts                     9904383                       # Number of Instructions Simulated
system.cpu.committedOps                      13869776                       # Number of Ops (including micro ops) Simulated
system.cpu.cpi                               1.077605                       # CPI: Cycles Per Instruction
system.cpu.cpi_total                         1.077605                       # CPI: Total CPI of All Threads
system.cpu.ipc                               0.927983                       # IPC: Instructions Per Cycle
system.cpu.ipc_total                         0.927983                       # IPC: Total IPC of All Threads
system.cpu.int_regfile_reads                 26972201                       # number of integer regfile reads
system.cpu.int_regfile_writes                12966563                       # number of integer regfile writes
system.cpu.fp_regfile_reads                      3796                       # number of floating regfile reads
system.cpu.fp_regfile_writes                     1482                       # number of floating regfile writes
system.cpu.cc_regfile_reads                   3383922                       # number of cc regfile reads
system.cpu.cc_regfile_writes                  4566122                       # number of cc regfile writes
system.cpu.misc_regfile_reads                 8370174                       # number of misc regfile reads
system.cpu.dcache.tags.pwrStateResidencyTicks::UNDEFINED   5336508000                       # Cumulative time (in ticks) in various power states
system.cpu.dcache.tags.tagsinuse           503.466547                       # Cycle average of tags in use
system.cpu.dcache.tags.total_refs             4471662                       # Total number of references to valid blocks.
system.cpu.dcache.tags.sampled_refs              2928                       # Sample count of references to valid blocks.
system.cpu.dcache.tags.avg_refs           1527.206967                       # Average number of references to valid blocks.
system.cpu.dcache.tags.warmup_cycle            170000                       # Cycle when the warmup percentage was hit.
system.cpu.dcache.tags.occ_blocks::.cpu.data   503.466547                       # Average occupied blocks per requestor
system.cpu.dcache.tags.occ_percent::.cpu.data     0.983333                       # Average percentage of cache occupancy
system.cpu.dcache.tags.occ_percent::total     0.983333                       # Average percentage of cache occupancy
system.cpu.dcache.tags.occ_task_id_blocks::1024          512                       # Occupied blocks per task id
system.cpu.dcache.tags.age_task_id_blocks_1024::0           78                       # Occupied blocks per task id
system.cpu.dcache.tags.age_task_id_blocks_1024::1           83                       # Occupied blocks per task id
system.cpu.dcache.tags.age_task_id_blocks_1024::3          351                       # Occupied blocks per task id
system.cpu.dcache.tags.occ_task_id_percent::1024            1                       # Percentage of cache occupancy per task id
system.cpu.dcache.tags.tag_accesses          35801184                       # Number of tag accesses
system.cpu.dcache.tags.data_accesses         35801184                       # Number of data accesses
system.cpu.dcache.pwrStateResidencyTicks::UNDEFINED   5336508000                       # Cumulative time (in ticks) in various power states
system.cpu.dcache.ReadReq_hits::.cpu.data      3063813                       # number of ReadReq hits
system.cpu.dcache.ReadReq_hits::total         3063813                       # number of ReadReq hits
system.cpu.dcache.WriteReq_hits::.cpu.data      1404921                       # number of WriteReq hits
system.cpu.dcache.WriteReq_hits::total        1404921                       # number of WriteReq hits
system.cpu.dcache.demand_hits::.cpu.data      4468734                       # number of demand (read+write) hits
system.cpu.dcache.demand_hits::total          4468734                       # number of demand (read+write) hits
system.cpu.dcache.overall_hits::.cpu.data      4468734                       # number of overall hits
system.cpu.dcache.overall_hits::total         4468734                       # number of overall hits
system.cpu.dcache.ReadReq_misses::.cpu.data         5307                       # number of ReadReq misses
system.cpu.dcache.ReadReq_misses::total          5307                       # number of ReadReq misses
system.cpu.dcache.WriteReq_misses::.cpu.data          741                       # number of WriteReq misses
system.cpu.dcache.WriteReq_misses::total          741                       # number of WriteReq misses
system.cpu.dcache.demand_misses::.cpu.data         6048                       # number of demand (read+write) misses
system.cpu.dcache.demand_misses::total           6048                       # number of demand (read+write) misses
system.cpu.dcache.overall_misses::.cpu.data         6048                       # number of overall misses
system.cpu.dcache.overall_misses::total          6048                       # number of overall misses
system.cpu.dcache.ReadReq_miss_latency::.cpu.data     72726000                       # number of ReadReq miss cycles
system.cpu.dcache.ReadReq_miss_latency::total     72726000                       # number of ReadReq miss cycles
system.cpu.dcache.WriteReq_miss_latency::.cpu.data     63658000                       # number of WriteReq miss cycles
system.cpu.dcache.WriteReq_miss_latency::total     63658000                       # number of WriteReq miss cycles
system.cpu.dcache.demand_miss_latency::.cpu.data    136384000                       # number of demand (read+write) miss cycles
system.cpu.dcache.demand_miss_latency::total    136384000                       # number of demand (read+write) miss cycles
system.cpu.dcache.overall_miss_latency::.cpu.data    136384000                       # number of overall miss cycles
system.cpu.dcache.overall_miss_latency::total    136384000                       # number of overall miss cycles
system.cpu.dcache.ReadReq_accesses::.cpu.data      3069120                       # number of ReadReq accesses(hits+misses)
system.cpu.dcache.ReadReq_accesses::total      3069120                       # number of ReadReq accesses(hits+misses)
system.cpu.dcache.WriteReq_accesses::.cpu.data      1405662                       # number of WriteReq accesses(hits+misses)
system.cpu.dcache.WriteReq_accesses::total      1405662                       # number of WriteReq accesses(hits+misses)
system.cpu.dcache.demand_accesses::.cpu.data      4474782                       # number of demand (read+write) accesses
system.cpu.dcache.demand_accesses::total      4474782                       # number of demand (read+write) accesses
system.cpu.dcache.overall_accesses::.cpu.data      4474782                       # number of overall (read+write) accesses
system.cpu.dcache.overall_accesses::total      4474782                       # number of overall (read+write) accesses
system.cpu.dcache.ReadReq_miss_rate::.cpu.data     0.001729                       # miss rate for ReadReq accesses
system.cpu.dcache.ReadReq_miss_rate::total     0.001729                       # miss rate for ReadReq accesses
system.cpu.dcache.WriteReq_miss_rate::.cpu.data     0.000527                       # miss rate for WriteReq accesses
system.cpu.dcache.WriteReq_miss_rate::total     0.000527                       # miss rate for WriteReq accesses
system.cpu.dcache.demand_miss_rate::.cpu.data     0.001352                       # miss rate for demand accesses
system.cpu.dcache.demand_miss_rate::total     0.001352                       # miss rate for demand accesses
system.cpu.dcache.overall_miss_rate::.cpu.data     0.001352                       # miss rate for overall accesses
system.cpu.dcache.overall_miss_rate::total     0.001352                       # miss rate for overall accesses
system.cpu.dcache.ReadReq_avg_miss_latency::.cpu.data 13703.787451                       # average ReadReq miss latency
system.cpu.dcache.ReadReq_avg_miss_latency::total 13703.787451                       # average ReadReq miss latency
system.cpu.dcache.WriteReq_avg_miss_latency::.cpu.data 85908.232119                       # average WriteReq miss latency
system.cpu.dcache.WriteReq_avg_miss_latency::total 85908.232119                       # average WriteReq miss latency
system.cpu.dcache.demand_avg_miss_latency::.cpu.data 22550.264550                       # average overall miss latency
[...]
system.l3bus.snoop_fanout::1                        0      0.00%    100.00% # Request fanout histogram
system.l3bus.snoop_fanout::overflows                0      0.00%    100.00% # Request fanout histogram
system.l3bus.snoop_fanout::min_value                0                       # Request fanout histogram
system.l3bus.snoop_fanout::max_value                0                       # Request fanout histogram
system.l3bus.snoop_fanout::total                 1330                       # Request fanout histogram
system.l3bus.reqLayer0.occupancy               665000                       # Layer occupancy (ticks)
system.l3bus.reqLayer0.utilization                0.0                       # Layer utilization (%)
system.l3bus.respLayer0.occupancy             3322500                       # Layer occupancy (ticks)
system.l3bus.respLayer0.utilization               0.1                       # Layer utilization (%)
system.l3cache.tags.pwrStateResidencyTicks::UNDEFINED   5336508000                       # Cumulative time (in ticks) in various power states
system.l3cache.tags.tagsinuse             1221.896743                       # Cycle average of tags in use
system.l3cache.tags.total_refs                   1329                       # Total number of references to valid blocks.
system.l3cache.tags.sampled_refs                 1329                       # Sample count of references to valid blocks.
system.l3cache.tags.avg_refs                        1                       # Average number of references to valid blocks.
system.l3cache.tags.warmup_cycle                76000                       # Cycle when the warmup percentage was hit.
system.l3cache.tags.occ_blocks::.cpu.inst   417.842786                       # Average occupied blocks per requestor
system.l3cache.tags.occ_blocks::.cpu.data   804.053957                       # Average occupied blocks per requestor
system.l3cache.tags.occ_percent::.cpu.inst     0.006376                       # Average percentage of cache occupancy
system.l3cache.tags.occ_percent::.cpu.data     0.012269                       # Average percentage of cache occupancy
system.l3cache.tags.occ_percent::total       0.018645                       # Average percentage of cache occupancy
system.l3cache.tags.occ_task_id_blocks::1024         1329                       # Occupied blocks per task id
system.l3cache.tags.age_task_id_blocks_1024::0           77                       # Occupied blocks per task id
system.l3cache.tags.age_task_id_blocks_1024::3         1252                       # Occupied blocks per task id
system.l3cache.tags.occ_task_id_percent::1024     0.020279                       # Percentage of cache occupancy per task id
system.l3cache.tags.tag_accesses                22609                       # Number of tag accesses
system.l3cache.tags.data_accesses               22609                       # Number of data accesses
system.l3cache.pwrStateResidencyTicks::UNDEFINED   5336508000                       # Cumulative time (in ticks) in various power states
system.l3cache.ReadExReq_misses::.cpu.data          737                       # number of ReadExReq misses
system.l3cache.ReadExReq_misses::total            737                       # number of ReadExReq misses
system.l3cache.ReadSharedReq_misses::.cpu.inst          482                       # number of ReadSharedReq misses
system.l3cache.ReadSharedReq_misses::.cpu.data          111                       # number of ReadSharedReq misses
system.l3cache.ReadSharedReq_misses::total          593                       # number of ReadSharedReq misses
system.l3cache.demand_misses::.cpu.inst           482                       # number of demand (read+write) misses
system.l3cache.demand_misses::.cpu.data           848                       # number of demand (read+write) misses
system.l3cache.demand_misses::total              1330                       # number of demand (read+write) misses
system.l3cache.overall_misses::.cpu.inst          482                       # number of overall misses
system.l3cache.overall_misses::.cpu.data          848                       # number of overall misses
system.l3cache.overall_misses::total             1330                       # number of overall misses
system.l3cache.ReadExReq_miss_latency::.cpu.data     53653000                       # number of ReadExReq miss cycles
system.l3cache.ReadExReq_miss_latency::total     53653000                       # number of ReadExReq miss cycles
system.l3cache.ReadSharedReq_miss_latency::.cpu.inst     35593000                       # number of ReadSharedReq miss cycles
system.l3cache.ReadSharedReq_miss_latency::.cpu.data      7988500                       # number of ReadSharedReq miss cycles
system.l3cache.ReadSharedReq_miss_latency::total     43581500                       # number of ReadSharedReq miss cycles
system.l3cache.demand_miss_latency::.cpu.inst     35593000                       # number of demand (read+write) miss cycles
system.l3cache.demand_miss_latency::.cpu.data     61641500                       # number of demand (read+write) miss cycles
system.l3cache.demand_miss_latency::total     97234500                       # number of demand (read+write) miss cycles
system.l3cache.overall_miss_latency::.cpu.inst     35593000                       # number of overall miss cycles
system.l3cache.overall_miss_latency::.cpu.data     61641500                       # number of overall miss cycles
system.l3cache.overall_miss_latency::total     97234500                       # number of overall miss cycles
system.l3cache.ReadExReq_accesses::.cpu.data          737                       # number of ReadExReq accesses(hits+misses)
system.l3cache.ReadExReq_accesses::total          737                       # number of ReadExReq accesses(hits+misses)
system.l3cache.ReadSharedReq_accesses::.cpu.inst          482                       # number of ReadSharedReq accesses(hits+misses)
system.l3cache.ReadSharedReq_accesses::.cpu.data          111                       # number of ReadSharedReq accesses(hits+misses)
system.l3cache.ReadSharedReq_accesses::total          593                       # number of ReadSharedReq accesses(hits+misses)
system.l3cache.demand_accesses::.cpu.inst          482                       # number of demand (read+write) accesses
system.l3cache.demand_accesses::.cpu.data          848                       # number of demand (read+write) accesses
system.l3cache.demand_accesses::total            1330                       # number of demand (read+write) accesses
system.l3cache.overall_accesses::.cpu.inst          482                       # number of overall (read+write) accesses
system.l3cache.overall_accesses::.cpu.data          848                       # number of overall (read+write) accesses
system.l3cache.overall_accesses::total           1330                       # number of overall (read+write) accesses
system.l3cache.ReadExReq_miss_rate::.cpu.data            1                       # miss rate for ReadExReq accesses
system.l3cache.ReadExReq_miss_rate::total            1                       # miss rate for ReadExReq accesses
system.l3cache.ReadSharedReq_miss_rate::.cpu.inst            1                       # miss rate for ReadSharedReq accesses
system.l3cache.ReadSharedReq_miss_rate::.cpu.data            1                       # miss rate for ReadSharedReq accesses
system.l3cache.ReadSharedReq_miss_rate::total            1                       # miss rate for ReadSharedReq accesses
system.l3cache.demand_miss_rate::.cpu.inst            1                       # miss rate for demand accesses
system.l3cache.demand_miss_rate::.cpu.data            1                       # miss rate for demand accesses
system.l3cache.demand_miss_rate::total              1                       # miss rate for demand accesses
system.l3cache.overall_miss_rate::.cpu.inst            1                       # miss rate for overall accesses
system.l3cache.overall_miss_rate::.cpu.data            1                       # miss rate for overall accesses
system.l3cache.overall_miss_rate::total             1                       # miss rate for overall accesses
system.l3cache.ReadExReq_avg_miss_latency::.cpu.data 72799.185889                       # average ReadExReq miss latency
system.l3cache.ReadExReq_avg_miss_latency::total 72799.185889                       # average ReadExReq miss latency
system.l3cache.ReadSharedReq_avg_miss_latency::.cpu.inst 73844.398340                       # average ReadSharedReq miss latency
system.l3cache.ReadSharedReq_avg_miss_latency::.cpu.data 71968.468468                       # average ReadSharedReq miss latency
system.l3cache.ReadSharedReq_avg_miss_latency::total 73493.254637                       # average ReadSharedReq miss latency
system.l3cache.demand_avg_miss_latency::.cpu.inst 73844.398340                       # average overall miss latency
system.l3cache.demand_avg_miss_latency::.cpu.data 72690.448113                       # average overall miss latency
system.l3cache.demand_avg_miss_latency::total 73108.646617                       # average overall miss latency
system.l3cache.overall_avg_miss_latency::.cpu.inst 73844.398340                       # average overall miss latency
system.l3cache.overall_avg_miss_latency::.cpu.data 72690.448113                       # average overall miss latency
system.l3cache.overall_avg_miss_latency::total 73108.646617                       # average overall miss latency
system.l3cache.blocked_cycles::no_mshrs             0                       # number of cycles access was blocked
system.l3cache.blocked_cycles::no_targets            0                       # number of cycles access was blocked
system.l3cache.blocked::no_mshrs                    0                       # number of cycles access was blocked
system.l3cache.blocked::no_targets                  0                       # number of cycles access was blocked
system.l3cache.avg_blocked_cycles::no_mshrs          nan                       # average number of cycles each access was blocked
system.l3cache.avg_blocked_cycles::no_targets          nan                       # average number of cycles each access was blocked
system.l3cache.ReadExReq_mshr_misses::.cpu.data          737                       # number of ReadExReq MSHR misses
system.l3cache.ReadExReq_mshr_misses::total          737                       # number of ReadExReq MSHR misses
system.l3cache.ReadSharedReq_mshr_misses::.cpu.inst          482                       # number of ReadSharedReq MSHR misses
system.l3cache.ReadSharedReq_mshr_misses::.cpu.data          111                       # number of ReadSharedReq MSHR misses
system.l3cache.ReadSharedReq_mshr_misses::total          593                       # number of ReadSharedReq MSHR misses
system.l3cache.demand_mshr_misses::.cpu.inst          482                       # number of demand (read+write) MSHR misses
system.l3cache.demand_mshr_misses::.cpu.data          848                       # number of demand (read+write) MSHR misses
system.l3cache.demand_mshr_misses::total         1330                       # number of demand (read+write) MSHR misses
system.l3cache.overall_mshr_misses::.cpu.inst          482                       # number of overall MSHR misses
system.l3cache.overall_mshr_misses::.cpu.data          848                       # number of overall MSHR misses
system.l3cache.overall_mshr_misses::total         1330                       # number of overall MSHR misses
system.l3cache.ReadExReq_mshr_miss_latency::.cpu.data     52179000                       # number of ReadExReq MSHR miss cycles
system.l3cache.ReadExReq_mshr_miss_latency::total     52179000                       # number of ReadExReq MSHR miss cycles
system.l3cache.ReadSharedReq_mshr_miss_latency::.cpu.inst     34631000                       # number of ReadSharedReq MSHR miss cycles
system.l3cache.ReadSharedReq_mshr_miss_latency::.cpu.data      7766500                       # number of ReadSharedReq MSHR miss cycles
system.l3cache.ReadSharedReq_mshr_miss_latency::total     42397500                       # number of ReadSharedReq MSHR miss cycles
system.l3cache.demand_mshr_miss_latency::.cpu.inst     34631000                       # number of demand (read+write) MSHR miss cycles
system.l3cache.demand_mshr_miss_latency::.cpu.data     59945500                       # number of demand (read+write) MSHR miss cycles
system.l3cache.demand_mshr_miss_latency::total     94576500                       # number of demand (read+write) MSHR miss cycles
system.l3cache.overall_mshr_miss_latency::.cpu.inst     34631000                       # number of overall MSHR miss cycles
system.l3cache.overall_mshr_miss_latency::.cpu.data     59945500                       # number of overall MSHR miss cycles
system.l3cache.overall_mshr_miss_latency::total     94576500                       # number of overall MSHR miss cycles
system.l3cache.ReadExReq_mshr_miss_rate::.cpu.data            1                       # mshr miss rate for ReadExReq accesses
system.l3cache.ReadExReq_mshr_miss_rate::total            1                       # mshr miss rate for ReadExReq accesses
system.l3cache.ReadSharedReq_mshr_miss_rate::.cpu.inst            1                       # mshr miss rate for ReadSharedReq accesses
system.l3cache.ReadSharedReq_mshr_miss_rate::.cpu.data            1                       # mshr miss rate for ReadSharedReq accesses
system.l3cache.ReadSharedReq_mshr_miss_rate::total            1                       # mshr miss rate for ReadSharedReq accesses
system.l3cache.demand_mshr_miss_rate::.cpu.inst            1                       # mshr miss rate for demand accesses
system.l3cache.demand_mshr_miss_rate::.cpu.data            1                       # mshr miss rate for demand accesses
system.l3cache.demand_mshr_miss_rate::total            1                       # mshr miss rate for demand accesses
system.l3cache.overall_mshr_miss_rate::.cpu.inst            1                       # mshr miss rate for overall accesses
system.l3cache.overall_mshr_miss_rate::.cpu.data            1                       # mshr miss rate for overall accesses
system.l3cache.overall_mshr_miss_rate::total            1                       # mshr miss rate for overall accesses
system.l3cache.ReadExReq_avg_mshr_miss_latency::.cpu.data 70799.185889                       # average ReadExReq mshr miss latency
system.l3cache.ReadExReq_avg_mshr_miss_latency::total 70799.185889                       # average ReadExReq mshr miss latency
system.l3cache.ReadSharedReq_avg_mshr_miss_latency::.cpu.inst 71848.547718                       # average ReadSharedReq mshr miss latency
system.l3cache.ReadSharedReq_avg_mshr_miss_latency::.cpu.data 69968.468468                       # average ReadSharedReq mshr miss latency
system.l3cache.ReadSharedReq_avg_mshr_miss_latency::total 71496.627319                       # average ReadSharedReq mshr miss latency
system.l3cache.demand_avg_mshr_miss_latency::.cpu.inst 71848.547718                       # average overall mshr miss latency
system.l3cache.demand_avg_mshr_miss_latency::.cpu.data 70690.448113                       # average overall mshr miss latency
system.l3cache.demand_avg_mshr_miss_latency::total 71110.150376                       # average overall mshr miss latency
system.l3cache.overall_avg_mshr_miss_latency::.cpu.inst 71848.547718                       # average overall mshr miss latency
system.l3cache.overall_avg_mshr_miss_latency::.cpu.data 70690.448113                       # average overall mshr miss latency
system.l3cache.overall_avg_mshr_miss_latency::total 71110.150376                       # average overall mshr miss latency
system.l3cache.replacements                         0                       # number of replacements
system.membus.snoop_filter.tot_requests          1330                       # Total number of requests made to the snoop filter.
system.membus.snoop_filter.hit_single_requests            0                       # Number of requests hitting in the snoop filter with a single holder of the requested data.
system.membus.snoop_filter.hit_multi_requests            0                       # Number of requests hitting in the snoop filter with multiple (>1) holders of the requested data.
system.membus.snoop_filter.tot_snoops               0                       # Total number of snoops made to the snoop filter.
system.membus.snoop_filter.hit_single_snoops            0                       # Number of snoops hitting in the snoop filter with a single holder of the requested data.
system.membus.snoop_filter.hit_multi_snoops            0                       # Number of snoops hitting in the snoop filter with multiple (>1) holders of the requested data.
system.membus.pwrStateResidencyTicks::UNDEFINED   5336508000                       # Cumulative time (in ticks) in various power states
system.membus.trans_dist::ReadResp                592                       # Transaction distribution
system.membus.trans_dist::ReadExReq               737                       # Transaction distribution
system.membus.trans_dist::ReadExResp              737                       # Transaction distribution
system.membus.trans_dist::ReadSharedReq           593                       # Transaction distribution
system.membus.pkt_count_system.l3cache.mem_side::system.mem_ctrl.port         2659                       # Packet count per connected master and slave (bytes)
system.membus.pkt_count_system.l3cache.mem_side::total         2659                       # Packet count per connected master and slave (bytes)
system.membus.pkt_count::total                   2659                       # Packet count per connected master and slave (bytes)
system.membus.pkt_size_system.l3cache.mem_side::system.mem_ctrl.port        85056                       # Cumulative packet size per connected master and slave (bytes)
system.membus.pkt_size_system.l3cache.mem_side::total        85056                       # Cumulative packet size per connected master and slave (bytes)
system.membus.pkt_size::total                   85056                       # Cumulative packet size per connected master and slave (bytes)
system.membus.snoops                                0                       # Total snoops (count)
system.membus.snoopTraffic                          0                       # Total snoop traffic (bytes)
system.membus.snoop_fanout::samples              1330                       # Request fanout histogram
system.membus.snoop_fanout::mean                    0                       # Request fanout histogram
system.membus.snoop_fanout::stdev                   0                       # Request fanout histogram
system.membus.snoop_fanout::underflows              0      0.00%      0.00% # Request fanout histogram
system.membus.snoop_fanout::0                    1330    100.00%    100.00% # Request fanout histogram
system.membus.snoop_fanout::1                       0      0.00%    100.00% # Request fanout histogram
system.membus.snoop_fanout::overflows               0      0.00%    100.00% # Request fanout histogram
system.membus.snoop_fanout::min_value               0                       # Request fanout histogram
system.membus.snoop_fanout::max_value               0                       # Request fanout histogram
system.membus.snoop_fanout::total                1330                       # Request fanout histogram
system.membus.reqLayer0.occupancy              665000                       # Layer occupancy (ticks)
system.membus.reqLayer0.utilization               0.0                       # Layer utilization (%)
system.membus.respLayer0.occupancy            3618750                       # Layer occupancy (ticks)
system.membus.respLayer0.utilization              0.1                       # Layer utilization (%)

---------- End Simulation Statistics   ----------
