
---------- Begin Simulation Statistics ----------
sim_seconds                                  0.014446                       # Number of seconds simulated
sim_ticks                                 14446190500                       # Number of ticks simulated
final_tick                                14446190500                       # Number of ticks from beginning of simulation (restored from checkpoints and never reset)
sim_freq                                 1000000000000                       # Frequency of simulated ticks
host_inst_rate                                 127683                       # Simulator instruction rate (inst/s)
host_op_rate                                   167880                       # Simulator op (including micro ops) rate (op/s)
host_tick_rate                               71113941                       # Simulator tick rate (ticks/s)
host_mem_usage                                 670588                       # Number of bytes of host memory used
host_seconds                                   203.14                       # Real time elapsed on the host
sim_insts                                    25937726                       # Number of instructions simulated
sim_ops                                      34103287                       # Number of ops (including micro ops) simulated
system.clk_domain.voltage_domain.voltage            1                       # Voltage in Volts
system.clk_domain.clock                           500                       # Clock period in ticks
system.mem_ctrl.pwrStateResidencyTicks::UNDEFINED  14446190500                       # Cumulative time (in ticks) in various power states
system.mem_ctrl.bytes_read::.cpu.inst           31552                       # Number of bytes read from this memory
system.mem_ctrl.bytes_read::.cpu.data           18176                       # Number of bytes read from this memory
system.mem_ctrl.bytes_read::total               49728                       # Number of bytes read from this memory
system.mem_ctrl.bytes_inst_read::.cpu.inst        31552                       # Number of instructions bytes read from this memory
system.mem_ctrl.bytes_inst_read::total          31552                       # Number of instructions bytes read from this memory
system.mem_ctrl.num_reads::.cpu.inst              493                       # Number of read requests responded to by this memory
system.mem_ctrl.num_reads::.cpu.data              284                       # Number of read requests responded to by this memory
system.mem_ctrl.num_reads::total                  777                       # Number of read requests responded to by this memory
system.mem_ctrl.bw_read::.cpu.inst            2184105                       # Total read bandwidth from this memory (bytes/s)
system.mem_ctrl.bw_read::.cpu.data            1258186                       # Total read bandwidth from this memory (bytes/s)
system.mem_ctrl.bw_read::total                3442292                       # Total read bandwidth from this memory (bytes/s)
system.mem_ctrl.bw_inst_read::.cpu.inst       2184105                       # Instruction read bandwidth from this memory (bytes/s)
system.mem_ctrl.bw_inst_read::total           2184105                       # Instruction read bandwidth from this memory (bytes/s)
system.mem_ctrl.bw_total::.cpu.inst           2184105                       # Total bandwidth to/from this memory (bytes/s)
system.mem_ctrl.bw_total::.cpu.data           1258186                       # Total bandwidth to/from this memory (bytes/s)
system.mem_ctrl.bw_total::total               3442292                       # Total bandwidth to/from this memory (bytes/s)
system.mem_ctrl.avgPriority_.cpu.inst::samples       493.00                       # Average QoS priority value for accepted requests
system.mem_ctrl.avgPriority_.cpu.data::samples       284.00                       # Average QoS priority value for accepted requests
system.mem_ctrl.priorityMinLatency       0.000000018750                       # per QoS priority minimum request to response latency (s)
system.mem_ctrl.priorityMaxLatency       0.000001099750                       # per QoS priority maximum request to response latency (s)
system.mem_ctrl.numReadWriteTurnArounds             0                       # Number of turnarounds from READ to WRITE
system.mem_ctrl.numWriteReadTurnArounds             0                       # Number of turnarounds from WRITE to READ
system.mem_ctrl.numStayReadState                 1557                       # Number of times bus staying in READ state
system.mem_ctrl.numStayWriteState                   0                       # Number of times bus staying in WRITE state
system.mem_ctrl.readReqs                          777                       # Number of read requests accepted
system.mem_ctrl.writeReqs                           0                       # Number of write requests accepted
system.mem_ctrl.readBursts                        777                       # Number of DRAM read bursts, including those serviced by the write queue
system.mem_ctrl.writeBursts                         0                       # Number of DRAM write bursts, including those merged in the write queue
system.mem_ctrl.bytesReadDRAM                   49728                       # Total number of bytes read from DRAM
system.mem_ctrl.bytesReadWrQ                        0                       # Total number of bytes read from write queue
system.mem_ctrl.bytesWritten                        0                       # Total number of bytes written to DRAM
system.mem_ctrl.bytesReadSys                    49728                       # Total read bytes from the system interface side
system.mem_ctrl.bytesWrittenSys                     0                       # Total written bytes from the system interface side
system.mem_ctrl.servicedByWrQ                       0                       # Number of DRAM read bursts serviced by the write queue
system.mem_ctrl.mergedWrBursts                      0                       # Number of DRAM write bursts merged with an existing one
system.mem_ctrl.neitherReadNorWriteReqs             0                       # Number of requests that are neither read nor write
system.mem_ctrl.perBankRdBursts::0                183                       # Per bank write bursts
system.mem_ctrl.perBankRdBursts::1                 65                       # Per bank write bursts
system.mem_ctrl.perBankRdBursts::2                 27                       # Per bank write bursts
system.mem_ctrl.perBankRdBursts::3                  5                       # Per bank write bursts
system.mem_ctrl.perBankRdBursts::4                  8                       # Per bank write bursts
system.mem_ctrl.perBankRdBursts::5                  7                       # Per bank write bursts
system.mem_ctrl.perBankRdBursts::6                 73                       # Per bank write bursts
system.mem_ctrl.perBankRdBursts::7                 60                       # Per bank write bursts
system.mem_ctrl.perBankRdBursts::8                  0                       # Per bank write bursts
system.mem_ctrl.perBankRdBursts::9                 12                       # Per bank write bursts
system.mem_ctrl.perBankRdBursts::10                10                       # Per bank write bursts
system.mem_ctrl.perBankRdBursts::11                30                       # Per bank write bursts
system.mem_ctrl.perBankRdBursts::12                41                       # Per bank write bursts
system.mem_ctrl.perBankRdBursts::13               104                       # Per bank write bursts
system.mem_ctrl.perBankRdBursts::14               109                       # Per bank write bursts
system.mem_ctrl.perBankRdBursts::15                43                       # Per bank write bursts
system.mem_ctrl.perBankWrBursts::0                  0                       # Per bank write bursts
system.mem_ctrl.perBankWrBursts::1                  0                       # Per bank write bursts
system.mem_ctrl.perBankWrBursts::2                  0                       # Per bank write bursts
system.mem_ctrl.perBankWrBursts::3                  0                       # Per bank write bursts
system.mem_ctrl.perBankWrBursts::4                  0                       # Per bank write bursts
system.mem_ctrl.perBankWrBursts::5                  0                       # Per bank write bursts
system.mem_ctrl.perBankWrBursts::6                  0                       # Per bank write bursts
system.mem_ctrl.perBankWrBursts::7                  0                       # Per bank write bursts
system.mem_ctrl.perBankWrBursts::8                  0                       # Per bank write bursts
system.mem_ctrl.perBankWrBursts::9                  0                       # Per bank write bursts
system.mem_ctrl.perBankWrBursts::10                 0                       # Per bank write bursts
system.mem_ctrl.perBankWrBursts::11                 0                       # Per bank write bursts
system.mem_ctrl.perBankWrBursts::12                 0                       # Per bank write bursts
system.mem_ctrl.perBankWrBursts::13                 0                       # Per bank write bursts
system.mem_ctrl.perBankWrBursts::14                 0                       # Per bank write bursts
system.mem_ctrl.perBankWrBursts::15                 0                       # Per bank write bursts
system.mem_ctrl.numRdRetry                          0                       # Number of times read queue was full causing retry
system.mem_ctrl.numWrRetry                          0                       # Number of times write queue was full causing retry
system.mem_ctrl.totGap                    14446092500                       # Total gap between requests
system.mem_ctrl.readPktSize::0                      0                       # Read request sizes (log2)
system.mem_ctrl.readPktSize::1                      0                       # Read request sizes (log2)
system.mem_ctrl.readPktSize::2                      0                       # Read request sizes (log2)
system.mem_ctrl.readPktSize::3                      0                       # Read request sizes (log2)
system.mem_ctrl.readPktSize::4                      0                       # Read request sizes (log2)
system.mem_ctrl.readPktSize::5                      0                       # Read request sizes (log2)
system.mem_ctrl.readPktSize::6                    777                       # Read request sizes (log2)
system.mem_ctrl.writePktSize::0                     0                       # Write request sizes (log2)
system.mem_ctrl.writePktSize::1                     0                       # Write request sizes (log2)
system.mem_ctrl.writePktSize::2                     0                       # Write request sizes (log2)
system.mem_ctrl.writePktSize::3                     0                       # Write request sizes (log2)
system.mem_ctrl.writePktSize::4                     0                       # Write request sizes (log2)
system.mem_ctrl.writePktSize::5                     0                       # Write request sizes (log2)
system.mem_ctrl.writePktSize::6                     0                       # Write request sizes (log2)
system.mem_ctrl.rdQLenPdf::0                      507                       # What read queue length does an incoming req see
system.mem_ctrl.rdQLenPdf::1                      210                       # What read queue length does an incoming req see
system.mem_ctrl.rdQLenPdf::2                       50                       # What read queue length does an incoming req see
system.mem_ctrl.rdQLenPdf::3                        8                       # What read queue length does an incoming req see
system.mem_ctrl.rdQLenPdf::4                        2                       # What read queue length does an incoming req see
system.mem_ctrl.rdQLenPdf::5                        0                       # What read queue length does an incoming req see
system.mem_ctrl.rdQLenPdf::6                        0                       # What read queue length does an incoming req see
system.mem_ctrl.rdQLenPdf::7                        0                       # What read queue length does an incoming req see
system.mem_ctrl.rdQLenPdf::8                        0                       # What read queue length does an incoming req see
system.mem_ctrl.rdQLenPdf::9                        0                       # What read queue length does an incoming req see
system.mem_ctrl.rdQLenPdf::10                       0                       # What read queue length does an incoming req see
system.mem_ctrl.rdQLenPdf::11                       0                       # What read queue length does an incoming req see
system.mem_ctrl.rdQLenPdf::12                       0                       # What read queue length does an incoming req see
system.mem_ctrl.rdQLenPdf::13                       0                       # What read queue length does an incoming req see
system.mem_ctrl.rdQLenPdf::14                       0                       # What read queue length does an incoming req see
system.mem_ctrl.rdQLenPdf::15                       0                       # What read queue length does an incoming req see
system.mem_ctrl.rdQLenPdf::16                       0                       # What read queue length does an incoming req see
system.mem_ctrl.rdQLenPdf::17                       0                       # What read queue length does an incoming req see
system.mem_ctrl.rdQLenPdf::18                       0                       # What read queue length does an incoming req see
system.mem_ctrl.rdQLenPdf::19                       0                       # What read queue length does an incoming req see
system.mem_ctrl.rdQLenPdf::20                       0                       # What read queue length does an incoming req see
system.mem_ctrl.rdQLenPdf::21                       0                       # What read queue length does an incoming req see
system.mem_ctrl.rdQLenPdf::22                       0                       # What read queue length does an incoming req see
system.mem_ctrl.rdQLenPdf::23                       0                       # What read queue length does an incoming req see
system.mem_ctrl.rdQLenPdf::24                       0                       # What read queue length does an incoming req see
system.mem_ctrl.rdQLenPdf::25                       0                       # What read queue length does an incoming req see
system.mem_ctrl.rdQLenPdf::26                       0                       # What read queue length does an incoming req see
system.mem_ctrl.rdQLenPdf::27                       0                       # What read queue length does an incoming req see
system.mem_ctrl.rdQLenPdf::28                       0                       # What read queue length does an incoming req see
system.mem_ctrl.rdQLenPdf::29                       0                       # What read queue length does an incoming req see
system.mem_ctrl.rdQLenPdf::30                       0                       # What read queue length does an incoming req see
system.mem_ctrl.rdQLenPdf::31                       0                       # What read queue length does an incoming req see
system.mem_ctrl.wrQLenPdf::0                        0                       # What write queue length does an incoming req see
system.mem_ctrl.wrQLenPdf::1                        0                       # What write queue length does an incoming req see
system.mem_ctrl.wrQLenPdf::2                        0                       # What write queue length does an incoming req see
system.mem_ctrl.wrQLenPdf::3                        0                       # What write queue length does an incoming req see
system.mem_ctrl.wrQLenPdf::4                        0                       # What write queue length does an incoming req see
system.mem_ctrl.wrQLenPdf::5                        0                       # What write queue length does an incoming req see
system.mem_ctrl.wrQLenPdf::6                        0                       # What write queue length does an incoming req see
system.mem_ctrl.wrQLenPdf::7                        0                       # What write queue length does an incoming req see
system.mem_ctrl.wrQLenPdf::8                        0                       # What write queue length does an incoming req see
system.mem_ctrl.wrQLenPdf::9                        0                       # What write queue length does an incoming req see
system.mem_ctrl.wrQLenPdf::10                       0                       # What write queue length does an incoming req see
system.mem_ctrl.wrQLenPdf::11                       0                       # What write queue length does an incoming req see
system.mem_ctrl.wrQLenPdf::12                       0                       # What write queue length does an incoming req see
system.mem_ctrl.wrQLenPdf::13                       0                       # What write queue length does an incoming req see
system.mem_ctrl.wrQLenPdf::14                       0                       # What write queue length does an incoming req see
system.mem_ctrl.wrQLenPdf::15                       0                       # What write queue length does an incoming req see
system.mem_ctrl.wrQLenPdf::16                       0                       # What write queue length does an incoming req see
system.mem_ctrl.wrQLenPdf::17                       0                       # What write queue length does an incoming req see
system.mem_ctrl.wrQLenPdf::18                       0                       # What write queue length does an incoming req see
system.mem_ctrl.wrQLenPdf::19                       0                       # What write queue length does an incoming req see
system.mem_ctrl.wrQLenPdf::20                       0                       # What write queue length does an incoming req see
system.mem_ctrl.wrQLenPdf::21                       0                       # What write queue length does an incoming req see
system.mem_ctrl.wrQLenPdf::22                       0                       # What write queue length does an incoming req see
system.mem_ctrl.wrQLenPdf::23                       0                       # What write queue length does an incoming req see
system.mem_ctrl.wrQLenPdf::24                       0                       # What write queue length does an incoming req see
system.mem_ctrl.wrQLenPdf::25                       0                       # What write queue length does an incoming req see
system.mem_ctrl.wrQLenPdf::26                       0                       # What write queue length does an incoming req see
system.mem_ctrl.wrQLenPdf::27                       0                       # What write queue length does an incoming req see
system.mem_ctrl.wrQLenPdf::28                       0                       # What write queue length does an incoming req see
system.mem_ctrl.wrQLenPdf::29                       0                       # What write queue length does an incoming req see
system.mem_ctrl.wrQLenPdf::30                       0                       # What write queue length does an incoming req see
system.mem_ctrl.wrQLenPdf::31                       0                       # What write queue length does an incoming req see
system.mem_ctrl.wrQLenPdf::32                       0                       # What write queue length does an incoming req see
system.mem_ctrl.wrQLenPdf::33                       0                       # What write queue length does an incoming req see
system.mem_ctrl.wrQLenPdf::34                       0                       # What write queue length does an incoming req see
system.mem_ctrl.wrQLenPdf::35                       0                       # What write queue length does an incoming req see
system.mem_ctrl.wrQLenPdf::36                       0                       # What write queue length does an incoming req see
system.mem_ctrl.wrQLenPdf::37                       0                       # What write queue length does an incoming req see
system.mem_ctrl.wrQLenPdf::38                       0                       # What write queue length does an incoming req see
system.mem_ctrl.wrQLenPdf::39                       0                       # What write queue length does an incoming req see
system.mem_ctrl.wrQLenPdf::40                       0                       # What write queue length does an incoming req see
system.mem_ctrl.wrQLenPdf::41                       0                       # What write queue length does an incoming req see
system.mem_ctrl.wrQLenPdf::42                       0                       # What write queue length does an incoming req see
system.mem_ctrl.wrQLenPdf::43                       0                       # What write queue length does an incoming req see
system.mem_ctrl.wrQLenPdf::44                       0                       # What write queue length does an incoming req see
system.mem_ctrl.wrQLenPdf::45                       0                       # What write queue length does an incoming req see
system.mem_ctrl.wrQLenPdf::46                       0                       # What write queue length does an incoming req see
system.mem_ctrl.wrQLenPdf::47                       0                       # What write queue length does an incoming req see
system.mem_ctrl.wrQLenPdf::48                       0                       # What write queue length does an incoming req see
system.mem_ctrl.wrQLenPdf::49                       0                       # What write queue length does an incoming req see
system.mem_ctrl.wrQLenPdf::50                       0                       # What write queue length does an incoming req see
system.mem_ctrl.wrQLenPdf::51                       0                       # What write queue length does an incoming req see
system.mem_ctrl.wrQLenPdf::52                       0                       # What write queue length does an incoming req see
system.mem_ctrl.wrQLenPdf::53                       0                       # What write queue length does an incoming req see
system.mem_ctrl.wrQLenPdf::54                       0                       # What write queue length does an incoming req see
system.mem_ctrl.wrQLenPdf::55                       0                       # What write queue length does an incoming req see
system.mem_ctrl.wrQLenPdf::56                       0                       # What write queue length does an incoming req see
system.mem_ctrl.wrQLenPdf::57                       0                       # What write queue length does an incoming req see
system.mem_ctrl.wrQLenPdf::58                       0                       # What write queue length does an incoming req see
system.mem_ctrl.wrQLenPdf::59                       0                       # What write queue length does an incoming req see
system.mem_ctrl.wrQLenPdf::60                       0                       # What write queue length does an incoming req see
system.mem_ctrl.wrQLenPdf::61                       0                       # What write queue length does an incoming req see
system.mem_ctrl.wrQLenPdf::62                       0                       # What write queue length does an incoming req see
system.mem_ctrl.wrQLenPdf::63                       0                       # What write queue length does an incoming req see
system.mem_ctrl.bytesPerActivate::samples          157                       # Bytes accessed per row activation
system.mem_ctrl.bytesPerActivate::mean     305.732484                       # Bytes accessed per row activation
system.mem_ctrl.bytesPerActivate::gmean    189.144322                       # Bytes accessed per row activation
system.mem_ctrl.bytesPerActivate::stdev    309.115288                       # Bytes accessed per row activation
system.mem_ctrl.bytesPerActivate::0-127            51     32.48%     32.48% # Bytes accessed per row activation
system.mem_ctrl.bytesPerActivate::128-255           43     27.39%     59.87% # Bytes accessed per row activation
system.mem_ctrl.bytesPerActivate::256-383           17     10.83%     70.70% # Bytes accessed per row activation
system.mem_ctrl.bytesPerActivate::384-511           10      6.37%     77.07% # Bytes accessed per row activation
system.mem_ctrl.bytesPerActivate::512-639            7      4.46%     81.53% # Bytes accessed per row activation
system.mem_ctrl.bytesPerActivate::640-767            6      3.82%     85.35% # Bytes accessed per row activation
system.mem_ctrl.bytesPerActivate::768-895            7      4.46%     89.81% # Bytes accessed per row activation
system.mem_ctrl.bytesPerActivate::896-1023            3      1.91%     91.72% # Bytes accessed per row activation
system.mem_ctrl.bytesPerActivate::1024-1151           13      8.28%    100.00% # Bytes accessed per row activation
system.mem_ctrl.bytesPerActivate::total           157                       # Bytes accessed per row activation
system.mem_ctrl.masterReadBytes::.cpu.inst        31552                       # Per-master bytes read from memory
system.mem_ctrl.masterReadBytes::.cpu.data        18176                       # Per-master bytes read from memory
system.mem_ctrl.masterReadRate::.cpu.inst 2184105.214450826868                       # Per-master bytes read from memory rate (Bytes/sec)
system.mem_ctrl.masterReadRate::.cpu.data 1258186.371002099011                       # Per-master bytes read from memory rate (Bytes/sec)
system.mem_ctrl.masterReadAccesses::.cpu.inst          493                       # Per-master read serviced memory accesses
system.mem_ctrl.masterReadAccesses::.cpu.data          284                       # Per-master read serviced memory accesses
system.mem_ctrl.masterReadTotalLat::.cpu.inst     16716000                       # Per-master read total memory access latency
system.mem_ctrl.masterReadTotalLat::.cpu.data     10632250                       # Per-master read total memory access latency
system.mem_ctrl.masterReadAvgLat::.cpu.inst     33906.69                       # Per-master read average memory access latency
system.mem_ctrl.masterReadAvgLat::.cpu.data     37437.50                       # Per-master read average memory access latency
system.mem_ctrl.totQLat                      12779500                       # Total ticks spent queuing
system.mem_ctrl.totMemAccLat                 27348250                       # Total ticks spent from burst creation until serviced by the DRAM
system.mem_ctrl.totBusLat                     3885000                       # Total ticks spent in databus transfers
system.mem_ctrl.avgQLat                      16447.23                       # Average queueing delay per DRAM burst
system.mem_ctrl.avgBusLat                     5000.00                       # Average bus latency per DRAM burst
system.mem_ctrl.avgMemAccLat                 35197.23                       # Average memory access latency per DRAM burst
system.mem_ctrl.avgRdBW                          3.44                       # Average DRAM read bandwidth in MiByte/s
system.mem_ctrl.avgWrBW                          0.00                       # Average achieved write bandwidth in MiByte/s
system.mem_ctrl.avgRdBWSys                       3.44                       # Average system read bandwidth in MiByte/s
system.mem_ctrl.avgWrBWSys                       0.00                       # Average system write bandwidth in MiByte/s
system.mem_ctrl.peakBW                       12800.00                       # Theoretical peak bandwidth in MiByte/s
system.mem_ctrl.busUtil                          0.03                       # Data bus utilization in percentage
system.mem_ctrl.busUtilRead                      0.03                       # Data bus utilization in percentage for reads
system.mem_ctrl.busUtilWrite                     0.00                       # Data bus utilization in percentage for writes
system.mem_ctrl.avgRdQLen                        1.00                       # Average read queue length when enqueuing
system.mem_ctrl.avgWrQLen                        0.00                       # Average write queue length when enqueuing
system.mem_ctrl.readRowHits                       609                       # Number of row buffer hits during reads
system.mem_ctrl.writeRowHits                        0                       # Number of row buffer hits during writes
system.mem_ctrl.readRowHitRate                  78.38                       # Row buffer hit rate for reads
system.mem_ctrl.writeRowHitRate                   nan                       # Row buffer hit rate for writes
system.mem_ctrl.avgGap                    18592139.64                       # Average gap between requests
system.mem_ctrl.pageHitRate                     78.38                       # Row buffer hit rate, read and write combined
system.mem_ctrl_0.actEnergy                    585480                       # Energy for activate commands per rank (pJ)
system.mem_ctrl_0.preEnergy                    288420                       # Energy for precharge commands per rank (pJ)
system.mem_ctrl_0.readEnergy                  3055920                       # Energy for read commands per rank (pJ)
system.mem_ctrl_0.writeEnergy                       0                       # Energy for write commands per rank (pJ)
system.mem_ctrl_0.refreshEnergy          7375680.000000                       # Energy for refresh commands per rank (pJ)
system.mem_ctrl_0.actBackEnergy               6767040                       # Energy for active background per rank (pJ)
system.mem_ctrl_0.preBackEnergy                263520                       # Energy for precharge background per rank (pJ)
system.mem_ctrl_0.actPowerDownEnergy         34645170                       # Energy for active power-down per rank (pJ)
system.mem_ctrl_0.prePowerDownEnergy          3047040                       # Energy for precharge power-down per rank (pJ)
system.mem_ctrl_0.selfRefreshEnergy        3443773140                       # Energy for self refresh per rank (pJ)
system.mem_ctrl_0.totalEnergy              3499801410                       # Total energy per rank (pJ)
system.mem_ctrl_0.averagePower             242.264659                       # Core power per rank (mW)
system.mem_ctrl_0.totalIdleTime           14430619000                       # Total Idle time Per DRAM Rank
system.mem_ctrl_0.memoryStateTime::IDLE        354500                       # Time in different power states
system.mem_ctrl_0.memoryStateTime::REF        3120000                       # Time in different power states
system.mem_ctrl_0.memoryStateTime::SREF   14346753500                       # Time in different power states
system.mem_ctrl_0.memoryStateTime::PRE_PDN      7936000                       # Time in different power states
system.mem_ctrl_0.memoryStateTime::ACT       12056000                       # Time in different power states
system.mem_ctrl_0.memoryStateTime::ACT_PDN     75970500                       # Time in different power states
system.mem_ctrl_1.actEnergy                    614040                       # Energy for activate commands per rank (pJ)
system.mem_ctrl_1.preEnergy                    307395                       # Energy for precharge commands per rank (pJ)
system.mem_ctrl_1.readEnergy                  2491860                       # Energy for read commands per rank (pJ)
system.mem_ctrl_1.writeEnergy                       0                       # Energy for write commands per rank (pJ)
system.mem_ctrl_1.refreshEnergy          3687840.000000                       # Energy for refresh commands per rank (pJ)
system.mem_ctrl_1.actBackEnergy               4870650                       # Energy for active background per rank (pJ)
system.mem_ctrl_1.preBackEnergy                222240                       # Energy for precharge background per rank (pJ)
system.mem_ctrl_1.actPowerDownEnergy         14383380                       # Energy for active power-down per rank (pJ)
system.mem_ctrl_1.prePowerDownEnergy          3200640                       # Energy for precharge power-down per rank (pJ)
system.mem_ctrl_1.selfRefreshEnergy        3455365140                       # Energy for self refresh per rank (pJ)
system.mem_ctrl_1.totalEnergy              3485143185                       # Total energy per rank (pJ)
system.mem_ctrl_1.averagePower             241.249981                       # Core power per rank (mW)
system.mem_ctrl_1.totalIdleTime           14434760750                       # Total Idle time Per DRAM Rank
system.mem_ctrl_1.memoryStateTime::IDLE        413500                       # Time in different power states
system.mem_ctrl_1.memoryStateTime::REF        1560000                       # Time in different power states
system.mem_ctrl_1.memoryStateTime::SREF   14395054000                       # Time in different power states
system.mem_ctrl_1.memoryStateTime::PRE_PDN      8334500                       # Time in different power states
system.mem_ctrl_1.memoryStateTime::ACT        9284500                       # Time in different power states
system.mem_ctrl_1.memoryStateTime::ACT_PDN     31544000                       # Time in different power states
system.pwrStateResidencyTicks::UNDEFINED  14446190500                       # Cumulative time (in ticks) in various power states
system.cpu.branchPred.lookups                 2043246                       # Number of BP lookups
system.cpu.branchPred.condPredicted           2043246                       # Number of conditional branches predicted
system.cpu.branchPred.condIncorrect             19777                       # Number of conditional branches incorrect
system.cpu.branchPred.BTBLookups              1769288                       # Number of BTB lookups
system.cpu.branchPred.BTBHits                       0                       # Number of BTB hits
system.cpu.branchPred.BTBCorrect                    0                       # Number of correct BTB predictions (this stat may not work properly.
system.cpu.branchPred.BTBHitPct              0.000000                       # BTB Hit Percentage
system.cpu.branchPred.usedRAS                    3171                       # Number of times the RAS was used to get a target.
system.cpu.branchPred.RASInCorrect                 70                       # Number of incorrect RAS predictions.
system.cpu.branchPred.indirectLookups         1769288                       # Number of indirect predictor lookups.
system.cpu.branchPred.indirectHits            1765886                       # Number of indirect target hits.
system.cpu.branchPred.indirectMisses             3402                       # Number of indirect misses.
system.cpu.branchPredindirectMispredicted          561                       # Number of mispredicted indirect branches.
system.cpu.dtb.walker.pwrStateResidencyTicks::UNDEFINED  14446190500                       # Cumulative time (in ticks) in various power states
system.cpu.dtb.rdAccesses                    11709730                       # TLB accesses on read requests
system.cpu.dtb.wrAccesses                     2006531                       # TLB accesses on write requests
system.cpu.dtb.rdMisses                            86                       # TLB misses on read requests
system.cpu.dtb.wrMisses                            22                       # TLB misses on write requests
system.cpu.apic_clk_domain.clock                 8000                       # Clock period in ticks
system.cpu.interrupts.pwrStateResidencyTicks::UNDEFINED  14446190500                       # Cumulative time (in ticks) in various power states
system.cpu.itb.walker.pwrStateResidencyTicks::UNDEFINED  14446190500                       # Cumulative time (in ticks) in various power states
system.cpu.itb.rdAccesses                           0                       # TLB accesses on read requests
system.cpu.itb.wrAccesses                     3327783                       # TLB accesses on write requests
system.cpu.itb.rdMisses                             0                       # TLB misses on read requests
system.cpu.itb.wrMisses                           129                       # TLB misses on write requests
system.cpu.workload.numSyscalls                    11                       # Number of system calls
system.cpu.pwrStateResidencyTicks::ON     14446190500                       # Cumulative time (in ticks) in various power states
system.cpu.numCycles                         28892382                       # number of cpu cycles simulated
system.cpu.numWorkItemsStarted                      0                       # number of work items this cpu started
system.cpu.numWorkItemsCompleted                    0                       # number of work items this cpu completed
system.cpu.fetch.icacheStallCycles              44605                       # Number of cycles fetch is stalled on an Icache miss
system.cpu.fetch.Insts                       27052732                       # Number of instructions fetch has processed
system.cpu.fetch.Branches                     2043246                       # Number of branches that fetch encountered
system.cpu.fetch.predictedBranches            1769057                       # Number of branches that fetch has predicted taken
system.cpu.fetch.Cycles                      28803055                       # Number of cycles fetch has run and was not squashing or blocked
system.cpu.fetch.SquashCycles                   39908                       # Number of cycles fetch has spent squashing
system.cpu.fetch.MiscStallCycles                   76                       # Number of cycles fetch has spent waiting on interrupts, or bad addresses, or out of MSHRs
system.cpu.fetch.PendingTrapStallCycles          1019                       # Number of stall cycles due to pending traps
system.cpu.fetch.PendingQuiesceStallCycles           46                       # Number of stall cycles due to pending quiesce instructions
system.cpu.fetch.IcacheWaitRetryStallCycles            1                       # Number of stall cycles due to full MSHR
system.cpu.fetch.CacheLines                   3327694                       # Number of cache lines fetched
system.cpu.fetch.IcacheSquashes                   354                       # Number of outstanding Icache misses that were squashed
system.cpu.fetch.rateDist::samples           28868756                       # Number of instructions fetched each cycle (Total)
system.cpu.fetch.rateDist::mean              1.230074                       # Number of instructions fetched each cycle (Total)
system.cpu.fetch.rateDist::stdev             0.945430                       # Number of instructions fetched each cycle (Total)
system.cpu.fetch.rateDist::underflows               0      0.00%      0.00% # Number of instructions fetched each cycle (Total)
system.cpu.fetch.rateDist::0                 10345089     35.83%     35.83% # Number of instructions fetched each cycle (Total)
system.cpu.fetch.rateDist::1                  1536618      5.32%     41.16% # Number of instructions fetched each cycle (Total)
system.cpu.fetch.rateDist::2                 16987049     58.84%    100.00% # Number of instructions fetched each cycle (Total)
system.cpu.fetch.rateDist::overflows                0      0.00%    100.00% # Number of instructions fetched each cycle (Total)
system.cpu.fetch.rateDist::min_value                0                       # Number of instructions fetched each cycle (Total)
system.cpu.fetch.rateDist::max_value                2                       # Number of instructions fetched each cycle (Total)
system.cpu.fetch.rateDist::total             28868756                       # Number of instructions fetched each cycle (Total)
system.cpu.fetch.branchRate                  0.070719                       # Number of branch fetches per cycle
system.cpu.fetch.rate                        0.936328                       # Number of inst fetches per cycle
system.cpu.decode.IdleCycles                  3256206                       # Number of cycles decode is idle
system.cpu.decode.BlockedCycles               8054651                       # Number of cycles decode is blocked
system.cpu.decode.RunCycles                  12887588                       # Number of cycles decode is running
system.cpu.decode.UnblockCycles               4650357                       # Number of cycles decode is unblocking
system.cpu.decode.SquashCycles                  19954                       # Number of cycles decode is squashing
system.cpu.decode.DecodedInsts               34990678                       # Number of instructions handled by decode
system.cpu.decode.SquashedInsts                 42924                       # Number of squashed instructions handled by decode
system.cpu.rename.SquashCycles                  19954                       # Number of cycles rename is squashing
system.cpu.rename.IdleCycles                  5280729                       # Number of cycles rename is idle
system.cpu.rename.BlockCycles                 4098469                       # Number of cycles rename is blocking
system.cpu.rename.serializeStallCycles           1481                       # count of cycles rename stalled for serializing inst
system.cpu.rename.RunCycles                  15037230                       # Number of cycles rename is running
system.cpu.rename.UnblockCycles               4430893                       # Number of cycles rename is unblocking
system.cpu.rename.RenamedInsts               34922127                       # Number of instructions processed by rename
system.cpu.rename.SquashedInsts                 32329                       # Number of squashed instructions processed by rename
system.cpu.rename.ROBFullEvents                    66                       # Number of times rename has blocked due to ROB full
system.cpu.rename.IQFullEvents                2840555                       # Number of times rename has blocked due to IQ full
system.cpu.rename.LQFullEvents                  34058                       # Number of times rename has blocked due to LQ full
system.cpu.rename.SQFullEvents                  15232                       # Number of times rename has blocked due to SQ full
system.cpu.rename.RenamedOperands            45984203                       # Number of destination operands rename has renamed
system.cpu.rename.RenameLookups              90806697                       # Number of register rename lookups that rename has made
system.cpu.rename.int_rename_lookups         61278838                       # Number of integer rename lookups
system.cpu.rename.fp_rename_lookups              3891                       # Number of floating rename lookups
system.cpu.rename.CommittedMaps              44929402                       # Number of HB maps that are committed
system.cpu.rename.UndoneMaps                  1054801                       # Number of HB maps that are undone due to squashing
system.cpu.rename.serializingInsts                 32                       # count of serializing insts renamed
system.cpu.rename.tempSerializingInsts             30                       # count of temporary serializing insts renamed
system.cpu.rename.skidInsts                   6184567                       # count of insts added to the skid buffer
system.cpu.memDep0.insertedLoads             11832809                       # Number of loads inserted to the mem dependence unit.
system.cpu.memDep0.insertedStores             2060134                       # Number of stores inserted to the mem dependence unit.
system.cpu.memDep0.conflictingLoads           5366872                       # Number of conflicting loads.
system.cpu.memDep0.conflictingStores          1009106                       # Number of conflicting stores.
system.cpu.iq.iqInstsAdded                   34802505                       # Number of instructions added to the IQ (excludes non-spec)
system.cpu.iq.iqNonSpecInstsAdded                 133                       # Number of non-speculative instructions added to the IQ
system.cpu.iq.iqInstsIssued                  34447073                       # Number of instructions issued
system.cpu.iq.iqSquashedInstsIssued              9323                       # Number of squashed instructions issued
system.cpu.iq.iqSquashedInstsExamined          699350                       # Number of squashed instructions iterated over during squash; mainly for profiling
system.cpu.iq.iqSquashedOperandsExamined      1103656                       # Number of squashed operands that are examined and possibly removed from graph
system.cpu.iq.iqSquashedNonSpecRemoved            122                       # Number of squashed non-spec instructions that were removed
system.cpu.iq.issued_per_cycle::samples      28868756                       # Number of insts issued each cycle
system.cpu.iq.issued_per_cycle::mean         1.193230                       # Number of insts issued each cycle
system.cpu.iq.issued_per_cycle::stdev        0.741485                       # Number of insts issued each cycle
system.cpu.iq.issued_per_cycle::underflows            0      0.00%      0.00% # Number of insts issued each cycle
system.cpu.iq.issued_per_cycle::0             5685813     19.70%     19.70% # Number of insts issued each cycle
system.cpu.iq.issued_per_cycle::1            11918813     41.29%     60.98% # Number of insts issued each cycle
system.cpu.iq.issued_per_cycle::2            11264130     39.02%    100.00% # Number of insts issued each cycle
system.cpu.iq.issued_per_cycle::overflows            0      0.00%    100.00% # Number of insts issued each cycle
system.cpu.iq.issued_per_cycle::min_value            0                       # Number of insts issued each cycle
system.cpu.iq.issued_per_cycle::max_value            2                       # Number of insts issued each cycle
system.cpu.iq.issued_per_cycle::total        28868756                       # Number of insts issued each cycle
system.cpu.iq.fu_full::No_OpClass                   0      0.00%      0.00% # attempts to use FU when none available
system.cpu.iq.fu_full::IntAlu                       0      0.00%      0.00% # attempts to use FU when none available
system.cpu.iq.fu_full::IntMult                      0      0.00%      0.00% # attempts to use FU when none available
system.cpu.iq.fu_full::IntDiv                       0      0.00%      0.00% # attempts to use FU when none available
system.cpu.iq.fu_full::FloatAdd                     0      0.00%      0.00% # attempts to use FU when none available
system.cpu.iq.fu_full::FloatCmp                     0      0.00%      0.00% # attempts to use FU when none available
system.cpu.iq.fu_full::FloatCvt                     0      0.00%      0.00% # attempts to use FU when none available
system.cpu.iq.fu_full::FloatMult                    0      0.00%      0.00% # attempts to use FU when none available
system.cpu.iq.fu_full::FloatMultAcc                 0      0.00%      0.00% # attempts to use FU when none available
system.cpu.iq.fu_full::FloatDiv                     0      0.00%      0.00% # attempts to use FU when none available
system.cpu.iq.fu_full::FloatMisc                    0      0.00%      0.00% # attempts to use FU when none available
system.cpu.iq.fu_full::FloatSqrt                    0      0.00%      0.00% # attempts to use FU when none available
system.cpu.iq.fu_full::SimdAdd                    247      0.00%      0.00% # attempts to use FU when none available
system.cpu.iq.fu_full::SimdAddAcc                   0      0.00%      0.00% # attempts to use FU when none available
system.cpu.iq.fu_full::SimdAlu                     54      0.00%      0.01% # attempts to use FU when none available
system.cpu.iq.fu_full::SimdCmp                      0      0.00%      0.01% # attempts to use FU when none available
system.cpu.iq.fu_full::SimdCvt                     16      0.00%      0.01% # attempts to use FU when none available
system.cpu.iq.fu_full::SimdMisc                   116      0.00%      0.01% # attempts to use FU when none available
system.cpu.iq.fu_full::SimdMult                     0      0.00%      0.01% # attempts to use FU when none available
system.cpu.iq.fu_full::SimdMultAcc                  0      0.00%      0.01% # attempts to use FU when none available
system.cpu.iq.fu_full::SimdShift                  120      0.00%      0.01% # attempts to use FU when none available
system.cpu.iq.fu_full::SimdShiftAcc                 0      0.00%      0.01% # attempts to use FU when none available
system.cpu.iq.fu_full::SimdSqrt                     0      0.00%      0.01% # attempts to use FU when none available
system.cpu.iq.fu_full::SimdFloatAdd                 0      0.00%      0.01% # attempts to use FU when none available
system.cpu.iq.fu_full::SimdFloatAlu                 0      0.00%      0.01% # attempts to use FU when none available
system.cpu.iq.fu_full::SimdFloatCmp                 0      0.00%      0.01% # attempts to use FU when none available
system.cpu.iq.fu_full::SimdFloatCvt                 0      0.00%      0.01% # attempts to use FU when none available
system.cpu.iq.fu_full::SimdFloatDiv                 0      0.00%      0.01% # attempts to use FU when none available
system.cpu.iq.fu_full::SimdFloatMisc                0      0.00%      0.01% # attempts to use FU when none available
system.cpu.iq.fu_full::SimdFloatMult                0      0.00%      0.01% # attempts to use FU when none available
system.cpu.iq.fu_full::SimdFloatMultAcc             0      0.00%      0.01% # attempts to use FU when none available
system.cpu.iq.fu_full::SimdFloatSqrt                0      0.00%      0.01% # attempts to use FU when none available
system.cpu.iq.fu_full::SimdAes                      0      0.00%      0.01% # attempts to use FU when none available
system.cpu.iq.fu_full::SimdAesMix                   0      0.00%      0.01% # attempts to use FU when none available
system.cpu.iq.fu_full::SimdSha1Hash                 0      0.00%      0.01% # attempts to use FU when none available
system.cpu.iq.fu_full::SimdSha1Hash2                0      0.00%      0.01% # attempts to use FU when none available
system.cpu.iq.fu_full::SimdSha256Hash               0      0.00%      0.01% # attempts to use FU when none available
system.cpu.iq.fu_full::SimdSha256Hash2              0      0.00%      0.01% # attempts to use FU when none available
system.cpu.iq.fu_full::SimdShaSigma2                0      0.00%      0.01% # attempts to use FU when none available
system.cpu.iq.fu_full::SimdShaSigma3                0      0.00%      0.01% # attempts to use FU when none available
system.cpu.iq.fu_full::MemRead                4576647     91.38%     91.39% # attempts to use FU when none available
system.cpu.iq.fu_full::MemWrite                431042      8.61%    100.00% # attempts to use FU when none available
system.cpu.iq.fu_full::FloatMemRead                 0      0.00%    100.00% # attempts to use FU when none available
system.cpu.iq.fu_full::FloatMemWrite                0      0.00%    100.00% # attempts to use FU when none available
system.cpu.iq.fu_full::IprAccess                    0      0.00%    100.00% # attempts to use FU when none available
system.cpu.iq.fu_full::InstPrefetch                 0      0.00%    100.00% # attempts to use FU when none available
system.cpu.iq.FU_type_0::No_OpClass               456      0.00%      0.00% # Type of FU issued
system.cpu.iq.FU_type_0::IntAlu              20714219     60.13%     60.13% # Type of FU issued
system.cpu.iq.FU_type_0::IntMult                  126      0.00%     60.14% # Type of FU issued
system.cpu.iq.FU_type_0::IntDiv                    16      0.00%     60.14% # Type of FU issued
system.cpu.iq.FU_type_0::FloatAdd                  10      0.00%     60.14% # Type of FU issued
system.cpu.iq.FU_type_0::FloatCmp                   0      0.00%     60.14% # Type of FU issued
system.cpu.iq.FU_type_0::FloatCvt                   0      0.00%     60.14% # Type of FU issued
system.cpu.iq.FU_type_0::FloatMult                  0      0.00%     60.14% # Type of FU issued
system.cpu.iq.FU_type_0::FloatMultAcc               0      0.00%     60.14% # Type of FU issued
system.cpu.iq.FU_type_0::FloatDiv                   0      0.00%     60.14% # Type of FU issued
system.cpu.iq.FU_type_0::FloatMisc                  0      0.00%     60.14% # Type of FU issued
system.cpu.iq.FU_type_0::FloatSqrt                  0      0.00%     60.14% # Type of FU issued
system.cpu.iq.FU_type_0::SimdAdd                  375      0.00%     60.14% # Type of FU issued
system.cpu.iq.FU_type_0::SimdAddAcc                 0      0.00%     60.14% # Type of FU issued
system.cpu.iq.FU_type_0::SimdAlu                   72      0.00%     60.14% # Type of FU issued
system.cpu.iq.FU_type_0::SimdCmp                    0      0.00%     60.14% # Type of FU issued
system.cpu.iq.FU_type_0::SimdCvt                  110      0.00%     60.14% # Type of FU issued
system.cpu.iq.FU_type_0::SimdMisc                 223      0.00%     60.14% # Type of FU issued
system.cpu.iq.FU_type_0::SimdMult                   0      0.00%     60.14% # Type of FU issued
system.cpu.iq.FU_type_0::SimdMultAcc                0      0.00%     60.14% # Type of FU issued
system.cpu.iq.FU_type_0::SimdShift                186      0.00%     60.14% # Type of FU issued
system.cpu.iq.FU_type_0::SimdShiftAcc               0      0.00%     60.14% # Type of FU issued
system.cpu.iq.FU_type_0::SimdSqrt                   0      0.00%     60.14% # Type of FU issued
system.cpu.iq.FU_type_0::SimdFloatAdd               0      0.00%     60.14% # Type of FU issued
system.cpu.iq.FU_type_0::SimdFloatAlu               0      0.00%     60.14% # Type of FU issued
system.cpu.iq.FU_type_0::SimdFloatCmp               0      0.00%     60.14% # Type of FU issued
system.cpu.iq.FU_type_0::SimdFloatCvt               0      0.00%     60.14% # Type of FU issued
system.cpu.iq.FU_type_0::SimdFloatDiv               0      0.00%     60.14% # Type of FU issued
system.cpu.iq.FU_type_0::SimdFloatMisc              0      0.00%     60.14% # Type of FU issued
system.cpu.iq.FU_type_0::SimdFloatMult              0      0.00%     60.14% # Type of FU issued
system.cpu.iq.FU_type_0::SimdFloatMultAcc            0      0.00%     60.14% # Type of FU issued
system.cpu.iq.FU_type_0::SimdFloatSqrt              0      0.00%     60.14% # Type of FU issued
system.cpu.iq.FU_type_0::SimdAes                    0      0.00%     60.14% # Type of FU issued
system.cpu.iq.FU_type_0::SimdAesMix                 0      0.00%     60.14% # Type of FU issued
system.cpu.iq.FU_type_0::SimdSha1Hash               0      0.00%     60.14% # Type of FU issued
system.cpu.iq.FU_type_0::SimdSha1Hash2              0      0.00%     60.14% # Type of FU issued
system.cpu.iq.FU_type_0::SimdSha256Hash             0      0.00%     60.14% # Type of FU issued
system.cpu.iq.FU_type_0::SimdSha256Hash2            0      0.00%     60.14% # Type of FU issued
system.cpu.iq.FU_type_0::SimdShaSigma2              0      0.00%     60.14% # Type of FU issued
system.cpu.iq.FU_type_0::SimdShaSigma3              0      0.00%     60.14% # Type of FU issued
system.cpu.iq.FU_type_0::MemRead             11722398     34.03%     94.17% # Type of FU issued
system.cpu.iq.FU_type_0::MemWrite             2008393      5.83%    100.00% # Type of FU issued
system.cpu.iq.FU_type_0::FloatMemRead              64      0.00%    100.00% # Type of FU issued
system.cpu.iq.FU_type_0::FloatMemWrite            425      0.00%    100.00% # Type of FU issued
system.cpu.iq.FU_type_0::IprAccess                  0      0.00%    100.00% # Type of FU issued
system.cpu.iq.FU_type_0::InstPrefetch               0      0.00%    100.00% # Type of FU issued
system.cpu.iq.FU_type_0::total               34447073                       # Type of FU issued
system.cpu.iq.rate                           1.192255                       # Inst issue rate
system.cpu.iq.fu_busy_cnt                     5008242                       # FU busy when requested
system.cpu.iq.fu_busy_rate                   0.145389                       # FU busy rate (busy events/executed inst)
system.cpu.iq.int_inst_queue_reads          102775951                       # Number of integer instruction queue reads
system.cpu.iq.int_inst_queue_writes          35500015                       # Number of integer instruction queue writes
system.cpu.iq.int_inst_queue_wakeup_accesses     34392184                       # Number of integer instruction queue wakeup accesses
system.cpu.iq.fp_inst_queue_reads                4516                       # Number of floating instruction queue reads
system.cpu.iq.fp_inst_queue_writes               2083                       # Number of floating instruction queue writes
system.cpu.iq.fp_inst_queue_wakeup_accesses         1956                       # Number of floating instruction queue wakeup accesses
system.cpu.iq.vec_inst_queue_reads                  0                       # Number of vector instruction queue reads
system.cpu.iq.vec_inst_queue_writes                 0                       # Number of vector instruction queue writes
system.cpu.iq.vec_inst_queue_wakeup_accesses            0                       # Number of vector instruction queue wakeup accesses
system.cpu.iq.int_alu_accesses               39452325                       # Number of integer alu accesses
system.cpu.iq.fp_alu_accesses                    2534                       # Number of floating point alu accesses
system.cpu.iq.vec_alu_accesses                      0                       # Number of vector alu accesses
system.cpu.iew.lsq.thread0.forwLoads          3937165                       # Number of loads that had data forwarded from stores
system.cpu.iew.lsq.thread0.invAddrLoads             0                       # Number of loads ignored due to an invalid address
system.cpu.iew.lsq.thread0.squashedLoads       244558                       # Number of loads squashed
system.cpu.iew.lsq.thread0.ignoredResponses         1382                       # Number of memory responses ignored because the instruction is squashed
system.cpu.iew.lsq.thread0.memOrderViolation          110                       # Number of memory ordering violations
system.cpu.iew.lsq.thread0.squashedStores        62911                       # Number of stores squashed
system.cpu.iew.lsq.thread0.invAddrSwpfs             0                       # Number of software prefetches ignored due to an invalid address
system.cpu.iew.lsq.thread0.blockedLoads             0                       # Number of blocked loads due to partial load-store forwarding
system.cpu.iew.lsq.thread0.rescheduledLoads            1                       # Number of loads that were rescheduled
system.cpu.iew.lsq.thread0.cacheBlocked            14                       # Number of times an access to memory failed due to the cache being blocked
system.cpu.iew.iewIdleCycles                        0                       # Number of cycles IEW is idle
system.cpu.iew.iewSquashCycles                  19954                       # Number of cycles IEW is squashing
system.cpu.iew.iewBlockCycles                   37057                       # Number of cycles IEW is blocking
system.cpu.iew.iewUnblockCycles                  3000                       # Number of cycles IEW is unblocking
system.cpu.iew.iewDispatchedInsts            34802638                       # Number of instructions dispatched to IQ
system.cpu.iew.iewDispSquashedInsts             33825                       # Number of squashed instructions skipped by dispatch
system.cpu.iew.iewDispLoadInsts              11832809                       # Number of dispatched load instructions
system.cpu.iew.iewDispStoreInsts              2060134                       # Number of dispatched store instructions
system.cpu.iew.iewDispNonSpecInsts                 57                       # Number of dispatched non-speculative instructions
system.cpu.iew.iewIQFullEvents                     16                       # Number of times the IQ has become full, causing a stall
system.cpu.iew.iewLSQFullEvents                  2963                       # Number of times the LSQ has become full, causing a stall
system.cpu.iew.memOrderViolationEvents            110                       # Number of memory order violations
system.cpu.iew.predictedTakenIncorrect           9174                       # Number of branches that were predicted taken incorrectly
system.cpu.iew.predictedNotTakenIncorrect        11332                       # Number of branches that were predicted not taken incorrectly
system.cpu.iew.branchMispredicts                20506                       # Number of branch mispredicts detected at execute
system.cpu.iew.iewExecutedInsts              34408884                       # Number of executed instructions
system.cpu.iew.iewExecLoadInsts              11709729                       # Number of load instructions executed
system.cpu.iew.iewExecSquashedInsts             38189                       # Number of squashed instructions skipped in execute
system.cpu.iew.exec_swp                             0                       # number of swp insts executed
system.cpu.iew.exec_nop                             0                       # number of nop insts executed
system.cpu.iew.exec_refs                     13716260                       # number of memory reference insts executed
system.cpu.iew.exec_branches                  1986923                       # Number of branches executed
system.cpu.iew.exec_stores                    2006531                       # Number of stores executed
system.cpu.iew.exec_rate                     1.190933                       # Inst execution rate
system.cpu.iew.wb_sent                       34400854                       # cumulative count of insts sent to commit
system.cpu.iew.wb_count                      34394140                       # cumulative count of insts written-back
system.cpu.iew.wb_producers                  30026774                       # num instructions producing a value
system.cpu.iew.wb_consumers                  37346916                       # num instructions consuming a value
system.cpu.iew.wb_rate                       1.190422                       # insts written-back per cycle
system.cpu.iew.wb_fanout                     0.803996                       # average fanout of values written-back
system.cpu.commit.commitSquashedInsts          731675                       # The number of squashed insts skipped by commit
system.cpu.commit.commitNonSpecStalls              11                       # The number of times commit has been forced to stall to communicate backwards
system.cpu.commit.branchMispredicts             19843                       # The number of times a branch was mispredicted
system.cpu.commit.committed_per_cycle::samples     28812247                       # Number of insts commited each cycle
system.cpu.commit.committed_per_cycle::mean     1.183639                       # Number of insts commited each cycle
system.cpu.commit.committed_per_cycle::stdev     0.906358                       # Number of insts commited each cycle
system.cpu.commit.committed_per_cycle::underflows            0      0.00%      0.00% # Number of insts commited each cycle
system.cpu.commit.committed_per_cycle::0      9674723     33.58%     33.58% # Number of insts commited each cycle
system.cpu.commit.committed_per_cycle::1      4171761     14.48%     48.06% # Number of insts commited each cycle
system.cpu.commit.committed_per_cycle::2     14965763     51.94%    100.00% # Number of insts commited each cycle
system.cpu.commit.committed_per_cycle::overflows            0      0.00%    100.00% # Number of insts commited each cycle
system.cpu.commit.committed_per_cycle::min_value            0                       # Number of insts commited each cycle
system.cpu.commit.committed_per_cycle::max_value            2                       # Number of insts commited each cycle
system.cpu.commit.committed_per_cycle::total     28812247                       # Number of insts commited each cycle
system.cpu.commit.committedInsts             25937726                       # Number of instructions committed
system.cpu.commit.committedOps               34103287                       # Number of ops (including micro ops) committed
system.cpu.commit.swp_count                         0                       # Number of s/w prefetches committed
system.cpu.commit.refs                       13585474                       # Number of memory references committed
system.cpu.commit.loads                      11588251                       # Number of loads committed
system.cpu.commit.membars                           0                       # Number of memory barriers committed
system.cpu.commit.branches                    1978276                       # Number of branches committed
system.cpu.commit.vec_insts                         0                       # Number of committed Vector instructions.
system.cpu.commit.fp_insts                       1935                       # Number of committed floating point instructions.
system.cpu.commit.int_insts                  34101764                       # Number of committed integer instructions.
system.cpu.commit.function_calls                 3139                       # Number of function calls committed.
system.cpu.commit.op_class_0::No_OpClass          100      0.00%      0.00% # Class of committed instruction
system.cpu.commit.op_class_0::IntAlu         20516615     60.16%     60.16% # Class of committed instruction
system.cpu.commit.op_class_0::IntMult             124      0.00%     60.16% # Class of committed instruction
system.cpu.commit.op_class_0::IntDiv               14      0.00%     60.16% # Class of committed instruction
system.cpu.commit.op_class_0::FloatAdd             10      0.00%     60.16% # Class of committed instruction
system.cpu.commit.op_class_0::FloatCmp              0      0.00%     60.16% # Class of committed instruction
system.cpu.commit.op_class_0::FloatCvt              0      0.00%     60.16% # Class of committed instruction
system.cpu.commit.op_class_0::FloatMult             0      0.00%     60.16% # Class of committed instruction
system.cpu.commit.op_class_0::FloatMultAcc            0      0.00%     60.16% # Class of committed instruction
system.cpu.commit.op_class_0::FloatDiv              0      0.00%     60.16% # Class of committed instruction
system.cpu.commit.op_class_0::FloatMisc             0      0.00%     60.16% # Class of committed instruction
system.cpu.commit.op_class_0::FloatSqrt             0      0.00%     60.16% # Class of committed instruction
system.cpu.commit.op_class_0::SimdAdd             374      0.00%     60.16% # Class of committed instruction
system.cpu.commit.op_class_0::SimdAddAcc            0      0.00%     60.16% # Class of committed instruction
system.cpu.commit.op_class_0::SimdAlu              68      0.00%     60.16% # Class of committed instruction
system.cpu.commit.op_class_0::SimdCmp               0      0.00%     60.16% # Class of committed instruction
system.cpu.commit.op_class_0::SimdCvt             108      0.00%     60.16% # Class of committed instruction
system.cpu.commit.op_class_0::SimdMisc            214      0.00%     60.16% # Class of committed instruction
system.cpu.commit.op_class_0::SimdMult              0      0.00%     60.16% # Class of committed instruction
system.cpu.commit.op_class_0::SimdMultAcc            0      0.00%     60.16% # Class of committed instruction
system.cpu.commit.op_class_0::SimdShift           186      0.00%     60.16% # Class of committed instruction
system.cpu.commit.op_class_0::SimdShiftAcc            0      0.00%     60.16% # Class of committed instruction
system.cpu.commit.op_class_0::SimdSqrt              0      0.00%     60.16% # Class of committed instruction
system.cpu.commit.op_class_0::SimdFloatAdd            0      0.00%     60.16% # Class of committed instruction
system.cpu.commit.op_class_0::SimdFloatAlu            0      0.00%     60.16% # Class of committed instruction
system.cpu.commit.op_class_0::SimdFloatCmp            0      0.00%     60.16% # Class of committed instruction
system.cpu.commit.op_class_0::SimdFloatCvt            0      0.00%     60.16% # Class of committed instruction
system.cpu.commit.op_class_0::SimdFloatDiv            0      0.00%     60.16% # Class of committed instruction
system.cpu.commit.op_class_0::SimdFloatMisc            0      0.00%     60.16% # Class of committed instruction
system.cpu.commit.op_class_0::SimdFloatMult            0      0.00%     60.16% # Class of committed instruction
system.cpu.commit.op_class_0::SimdFloatMultAcc            0      0.00%     60.16% # Class of committed instruction
system.cpu.commit.op_class_0::SimdFloatSqrt            0      0.00%     60.16% # Class of committed instruction
system.cpu.commit.op_class_0::SimdAes               0      0.00%     60.16% # Class of committed instruction
system.cpu.commit.op_class_0::SimdAesMix            0      0.00%     60.16% # Class of committed instruction
system.cpu.commit.op_class_0::SimdSha1Hash            0      0.00%     60.16% # Class of committed instruction
system.cpu.commit.op_class_0::SimdSha1Hash2            0      0.00%     60.16% # Class of committed instruction
system.cpu.commit.op_class_0::SimdSha256Hash            0      0.00%     60.16% # Class of committed instruction
system.cpu.commit.op_class_0::SimdSha256Hash2            0      0.00%     60.16% # Class of committed instruction
system.cpu.commit.op_class_0::SimdShaSigma2            0      0.00%     60.16% # Class of committed instruction
system.cpu.commit.op_class_0::SimdShaSigma3            0      0.00%     60.16% # Class of committed instruction
system.cpu.commit.op_class_0::MemRead        11588199     33.98%     94.14% # Class of committed instruction
system.cpu.commit.op_class_0::MemWrite        1996812      5.86%    100.00% # Class of committed instruction
system.cpu.commit.op_class_0::FloatMemRead           52      0.00%    100.00% # Class of committed instruction
system.cpu.commit.op_class_0::FloatMemWrite          411      0.00%    100.00% # Class of committed instruction
system.cpu.commit.op_class_0::IprAccess             0      0.00%    100.00% # Class of committed instruction
system.cpu.commit.op_class_0::InstPrefetch            0      0.00%    100.00% # Class of committed instruction
system.cpu.commit.op_class_0::total          34103287                       # Class of committed instruction
system.cpu.commit.bw_lim_events              14965763                       # number cycles where commit BW limit reached
system.cpu.rob.rob_reads                     48681446                       # The number of ROB reads
system.cpu.rob.rob_writes                    69726446                       # The number of ROB writes
system.cpu.timesIdled                             264                       # Number of times that the entire CPU went into an idle state and unscheduled itself
system.cpu.idleCycles                           23626                       # Total number of cycles that the CPU has spent unscheduled due to idling
system.cpu.committedInsts                    25937726                       # Number of Instructions Simulated
system.cpu.committedOps                      34103287                       # Number of Ops (including micro ops) Simulated
system.cpu.cpi                               1.113913                       # CPI: Cycles Per Instruction
system.cpu.cpi_total                         1.113913                       # CPI: Total CPI of All Threads
system.cpu.ipc                               0.897736                       # IPC: Instructions Per Cycle
system.cpu.ipc_total                         0.897736                       # IPC: Total IPC of All Threads
system.cpu.int_regfile_reads                 60261047                       # number of integer regfile reads
system.cpu.int_regfile_writes                30405039                       # number of integer regfile writes
system.cpu.fp_regfile_reads                      3787                       # number of floating regfile reads
system.cpu.fp_regfile_writes                     1483                       # number of floating regfile writes
system.cpu.cc_regfile_reads                  11415200                       # number of cc regfile reads
system.cpu.cc_regfile_writes                 14889920                       # number of cc regfile writes
system.cpu.misc_regfile_reads                17705312                       # number of misc regfile reads
system.cpu.dcache.tags.pwrStateResidencyTicks::UNDEFINED  14446190500                       # Cumulative time (in ticks) in various power states
system.cpu.dcache.tags.tagsinuse           266.528305                       # Cycle average of tags in use
system.cpu.dcache.tags.total_refs             9769587                       # Total number of references to valid blocks.
system.cpu.dcache.tags.sampled_refs               284                       # Sample count of references to valid blocks.
system.cpu.dcache.tags.avg_refs          34399.954225                       # Average number of references to valid blocks.
system.cpu.dcache.tags.warmup_cycle            171000                       # Cycle when the warmup percentage was hit.
system.cpu.dcache.tags.occ_blocks::.cpu.data   266.528305                       # Average occupied blocks per requestor
system.cpu.dcache.tags.occ_percent::.cpu.data     0.520563                       # Average percentage of cache occupancy
system.cpu.dcache.tags.occ_percent::total     0.520563                       # Average percentage of cache occupancy
system.cpu.dcache.tags.occ_task_id_blocks::1024          284                       # Occupied blocks per task id
system.cpu.dcache.tags.age_task_id_blocks_1024::0           17                       # Occupied blocks per task id
system.cpu.dcache.tags.age_task_id_blocks_1024::4          267                       # Occupied blocks per task id
system.cpu.dcache.tags.occ_task_id_percent::1024     0.554688                       # Percentage of cache occupancy per task id
system.cpu.dcache.tags.tag_accesses          78157876                       # Number of tag accesses
system.cpu.dcache.tags.data_accesses         78157876                       # Number of data accesses
system.cpu.dcache.pwrStateResidencyTicks::UNDEFINED  14446190500                       # Cumulative time (in ticks) in various power states
system.cpu.dcache.ReadReq_hits::.cpu.data      7772255                       # number of ReadReq hits
system.cpu.dcache.ReadReq_hits::total         7772255                       # number of ReadReq hits
system.cpu.dcache.WriteReq_hits::.cpu.data      1997048                       # number of WriteReq hits
system.cpu.dcache.WriteReq_hits::total        1997048                       # number of WriteReq hits
system.cpu.dcache.demand_hits::.cpu.data      9769303                       # number of demand (read+write) hits
system.cpu.dcache.demand_hits::total          9769303                       # number of demand (read+write) hits
system.cpu.dcache.overall_hits::.cpu.data      9769303                       # number of overall hits
system.cpu.dcache.overall_hits::total         9769303                       # number of overall hits
system.cpu.dcache.ReadReq_misses::.cpu.data          221                       # number of ReadReq misses
system.cpu.dcache.ReadReq_misses::total           221                       # number of ReadReq misses
system.cpu.dcache.WriteReq_misses::.cpu.data          175                       # number of WriteReq misses
system.cpu.dcache.WriteReq_misses::total          175                       # number of WriteReq misses
system.cpu.dcache.demand_misses::.cpu.data          396                       # number of demand (read+write) misses
system.cpu.dcache.demand_misses::total            396                       # number of demand (read+write) misses
system.cpu.dcache.overall_misses::.cpu.data          396                       # number of overall misses
system.cpu.dcache.overall_misses::total           396                       # number of overall misses
system.cpu.dcache.ReadReq_miss_latency::.cpu.data     17048000                       # number of ReadReq miss cycles
system.cpu.dcache.ReadReq_miss_latency::total     17048000                       # number of ReadReq miss cycles
system.cpu.dcache.WriteReq_miss_latency::.cpu.data     15637000                       # number of WriteReq miss cycles
system.cpu.dcache.WriteReq_miss_latency::total     15637000                       # number of WriteReq miss cycles
system.cpu.dcache.demand_miss_latency::.cpu.data     32685000                       # number of demand (read+write) miss cycles
system.cpu.dcache.demand_miss_latency::total     32685000                       # number of demand (read+write) miss cycles
system.cpu.dcache.overall_miss_latency::.cpu.data     32685000                       # number of overall miss cycles
system.cpu.dcache.overall_miss_latency::total     32685000                       # number of overall miss cycles
system.cpu.dcache.ReadReq_accesses::.cpu.data      7772476                       # number of ReadReq accesses(hits+misses)
system.cpu.dcache.ReadReq_accesses::total      7772476                       # number of ReadReq accesses(hits+misses)
system.cpu.dcache.WriteReq_accesses::.cpu.data      1997223                       # number of WriteReq accesses(hits+misses)
system.cpu.dcache.WriteReq_accesses::total      1997223                       # number of WriteReq accesses(hits+misses)
system.cpu.dcache.demand_accesses::.cpu.data      9769699                       # number of demand (read+write) accesses
system.cpu.dcache.demand_accesses::total      9769699                       # number of demand (read+write) accesses
system.cpu.dcache.overall_accesses::.cpu.data      9769699                       # number of overall (read+write) accesses
system.cpu.dcache.overall_accesses::total      9769699                       # number of overall (read+write) accesses
system.cpu.dcache.ReadReq_miss_rate::.cpu.data     0.000028                       # miss rate for ReadReq accesses
system.cpu.dcache.ReadReq_miss_rate::total     0.000028                       # miss rate for ReadReq accesses
system.cpu.dcache.WriteReq_miss_rate::.cpu.data     0.000088                       # miss rate for WriteReq accesses
system.cpu.dcache.WriteReq_miss_rate::total     0.000088                       # miss rate for WriteReq accesses
system.cpu.dcache.demand_miss_rate::.cpu.data     0.000041                       # miss rate for demand accesses
system.cpu.dcache.demand_miss_rate::total     0.000041                       # miss rate for demand accesses
system.cpu.dcache.overall_miss_rate::.cpu.data     0.000041                       # miss rate for overall accesses
system.cpu.dcache.overall_miss_rate::total     0.000041                       # miss rate for overall accesses
system.cpu.dcache.ReadReq_avg_miss_latency::.cpu.data 77140.271493                       # average ReadReq miss latency
system.cpu.dcache.ReadReq_avg_miss_latency::total 77140.271493                       # average ReadReq miss latency
system.cpu.dcache.WriteReq_avg_miss_latency::.cpu.data 89354.285714                       # average WriteReq miss latency
system.cpu.dcache.WriteReq_avg_miss_latency::total 89354.285714                       # average WriteReq miss latency
system.cpu.dcache.demand_avg_miss_latency::.cpu.data 82537.878788                       # average overall miss latency
system.cpu.dcache.demand_avg_miss_latency::total 82537.878788                       # average overall miss latency
system.cpu.dcache.overall_avg_miss_latency::.cpu.data 82537.878788                       # average overall miss latency
[...]
system.l3bus.snoop_fanout::1                        0      0.00%    100.00% # Request fanout histogram
system.l3bus.snoop_fanout::overflows                0      0.00%    100.00% # Request fanout histogram
system.l3bus.snoop_fanout::min_value                0                       # Request fanout histogram
system.l3bus.snoop_fanout::max_value                0                       # Request fanout histogram
system.l3bus.snoop_fanout::total                  777                       # Request fanout histogram
system.l3bus.reqLayer0.occupancy               388500                       # Layer occupancy (ticks)
system.l3bus.reqLayer0.utilization                0.0                       # Layer utilization (%)
system.l3bus.respLayer0.occupancy             1942500                       # Layer occupancy (ticks)
system.l3bus.respLayer0.utilization               0.0                       # Layer utilization (%)
system.l3cache.tags.pwrStateResidencyTicks::UNDEFINED  14446190500                       # Cumulative time (in ticks) in various power states
system.l3cache.tags.tagsinuse              690.984899                       # Cycle average of tags in use
system.l3cache.tags.total_refs                    777                       # Total number of references to valid blocks.
system.l3cache.tags.sampled_refs                  777                       # Sample count of references to valid blocks.
system.l3cache.tags.avg_refs                        1                       # Average number of references to valid blocks.
system.l3cache.tags.warmup_cycle                76000                       # Cycle when the warmup percentage was hit.
system.l3cache.tags.occ_blocks::.cpu.inst   424.456476                       # Average occupied blocks per requestor
system.l3cache.tags.occ_blocks::.cpu.data   266.528423                       # Average occupied blocks per requestor
system.l3cache.tags.occ_percent::.cpu.inst     0.006477                       # Average percentage of cache occupancy
system.l3cache.tags.occ_percent::.cpu.data     0.004067                       # Average percentage of cache occupancy
system.l3cache.tags.occ_percent::total       0.010544                       # Average percentage of cache occupancy
system.l3cache.tags.occ_task_id_blocks::1024          777                       # Occupied blocks per task id
system.l3cache.tags.age_task_id_blocks_1024::0           85                       # Occupied blocks per task id
system.l3cache.tags.age_task_id_blocks_1024::4          692                       # Occupied blocks per task id
system.l3cache.tags.occ_task_id_percent::1024     0.011856                       # Percentage of cache occupancy per task id
system.l3cache.tags.tag_accesses                13209                       # Number of tag accesses
system.l3cache.tags.data_accesses               13209                       # Number of data accesses
system.l3cache.pwrStateResidencyTicks::UNDEFINED  14446190500                       # Cumulative time (in ticks) in various power states
system.l3cache.ReadExReq_misses::.cpu.data          174                       # number of ReadExReq misses
system.l3cache.ReadExReq_misses::total            174                       # number of ReadExReq misses
system.l3cache.ReadSharedReq_misses::.cpu.inst          493                       # number of ReadSharedReq misses
system.l3cache.ReadSharedReq_misses::.cpu.data          110                       # number of ReadSharedReq misses
system.l3cache.ReadSharedReq_misses::total          603                       # number of ReadSharedReq misses
system.l3cache.demand_misses::.cpu.inst           493                       # number of demand (read+write) misses
system.l3cache.demand_misses::.cpu.data           284                       # number of demand (read+write) misses
system.l3cache.demand_misses::total               777                       # number of demand (read+write) misses
system.l3cache.overall_misses::.cpu.inst          493                       # number of overall misses
system.l3cache.overall_misses::.cpu.data          284                       # number of overall misses
system.l3cache.overall_misses::total              777                       # number of overall misses
system.l3cache.ReadExReq_miss_latency::.cpu.data     13222000                       # number of ReadExReq miss cycles
system.l3cache.ReadExReq_miss_latency::total     13222000                       # number of ReadExReq miss cycles
system.l3cache.ReadSharedReq_miss_latency::.cpu.inst     35065000                       # number of ReadSharedReq miss cycles
system.l3cache.ReadSharedReq_miss_latency::.cpu.data      7979500                       # number of ReadSharedReq miss cycles
system.l3cache.ReadSharedReq_miss_latency::total     43044500                       # number of ReadSharedReq miss cycles
system.l3cache.demand_miss_latency::.cpu.inst     35065000                       # number of demand (read+write) miss cycles
system.l3cache.demand_miss_latency::.cpu.data     21201500                       # number of demand (read+write) miss cycles
system.l3cache.demand_miss_latency::total     56266500                       # number of demand (read+write) miss cycles
system.l3cache.overall_miss_latency::.cpu.inst     35065000                       # number of overall miss cycles
system.l3cache.overall_miss_latency::.cpu.data     21201500                       # number of overall miss cycles
system.l3cache.overall_miss_latency::total     56266500                       # number of overall miss cycles
system.l3cache.ReadExReq_accesses::.cpu.data          174                       # number of ReadExReq accesses(hits+misses)
system.l3cache.ReadExReq_accesses::total          174                       # number of ReadExReq accesses(hits+misses)
system.l3cache.ReadSharedReq_accesses::.cpu.inst          493                       # number of ReadSharedReq accesses(hits+misses)
system.l3cache.ReadSharedReq_accesses::.cpu.data          110                       # number of ReadSharedReq accesses(hits+misses)
system.l3cache.ReadSharedReq_accesses::total          603                       # number of ReadSharedReq accesses(hits+misses)
system.l3cache.demand_accesses::.cpu.inst          493                       # number of demand (read+write) accesses
system.l3cache.demand_accesses::.cpu.data          284                       # number of demand (read+write) accesses
system.l3cache.demand_accesses::total             777                       # number of demand (read+write) accesses
system.l3cache.overall_accesses::.cpu.inst          493                       # number of overall (read+write) accesses
system.l3cache.overall_accesses::.cpu.data          284                       # number of overall (read+write) accesses
system.l3cache.overall_accesses::total            777                       # number of overall (read+write) accesses
system.l3cache.ReadExReq_miss_rate::.cpu.data            1                       # miss rate for ReadExReq accesses
system.l3cache.ReadExReq_miss_rate::total            1                       # miss rate for ReadExReq accesses
system.l3cache.ReadSharedReq_miss_rate::.cpu.inst            1                       # miss rate for ReadSharedReq accesses
system.l3cache.ReadSharedReq_miss_rate::.cpu.data            1                       # miss rate for ReadSharedReq accesses
system.l3cache.ReadSharedReq_miss_rate::total            1                       # miss rate for ReadSharedReq accesses
system.l3cache.demand_miss_rate::.cpu.inst            1                       # miss rate for demand accesses
system.l3cache.demand_miss_rate::.cpu.data            1                       # miss rate for demand accesses
system.l3cache.demand_miss_rate::total              1                       # miss rate for demand accesses
system.l3cache.overall_miss_rate::.cpu.inst            1                       # miss rate for overall accesses
system.l3cache.overall_miss_rate::.cpu.data            1                       # miss rate for overall accesses
system.l3cache.overall_miss_rate::total             1                       # miss rate for overall accesses
system.l3cache.ReadExReq_avg_miss_latency::.cpu.data 75988.505747                       # average ReadExReq miss latency
system.l3cache.ReadExReq_avg_miss_latency::total 75988.505747                       # average ReadExReq miss latency
system.l3cache.ReadSharedReq_avg_miss_latency::.cpu.inst 71125.760649                       # average ReadSharedReq miss latency
system.l3cache.ReadSharedReq_avg_miss_latency::.cpu.data 72540.909091                       # average ReadSharedReq miss latency
system.l3cache.ReadSharedReq_avg_miss_latency::total 71383.913765                       # average ReadSharedReq miss latency
system.l3cache.demand_avg_miss_latency::.cpu.inst 71125.760649                       # average overall miss latency
system.l3cache.demand_avg_miss_latency::.cpu.data 74653.169014                       # average overall miss latency
system.l3cache.demand_avg_miss_latency::total 72415.057915                       # average overall miss latency
system.l3cache.overall_avg_miss_latency::.cpu.inst 71125.760649                       # average overall miss latency
system.l3cache.overall_avg_miss_latency::.cpu.data 74653.169014                       # average overall miss latency
system.l3cache.overall_avg_miss_latency::total 72415.057915                       # average overall miss latency
system.l3cache.blocked_cycles::no_mshrs             0                       # number of cycles access was blocked
system.l3cache.blocked_cycles::no_targets            0                       # number of cycles access was blocked
system.l3cache.blocked::no_mshrs                    0                       # number of cycles access was blocked
system.l3cache.blocked::no_targets                  0                       # number of cycles access was blocked
system.l3cache.avg_blocked_cycles::no_mshrs          nan                       # average number of cycles each access was blocked
system.l3cache.avg_blocked_cycles::no_targets          nan                       # average number of cycles each access was blocked
system.l3cache.ReadExReq_mshr_misses::.cpu.data          174                       # number of ReadExReq MSHR misses
system.l3cache.ReadExReq_mshr_misses::total          174                       # number of ReadExReq MSHR misses
system.l3cache.ReadSharedReq_mshr_misses::.cpu.inst          493                       # number of ReadSharedReq MSHR misses
system.l3cache.ReadSharedReq_mshr_misses::.cpu.data          110                       # number of ReadSharedReq MSHR misses
system.l3cache.ReadSharedReq_mshr_misses::total          603                       # number of ReadSharedReq MSHR misses
system.l3cache.demand_mshr_misses::.cpu.inst          493                       # number of demand (read+write) MSHR misses
system.l3cache.demand_mshr_misses::.cpu.data          284                       # number of demand (read+write) MSHR misses
system.l3cache.demand_mshr_misses::total          777                       # number of demand (read+write) MSHR misses
system.l3cache.overall_mshr_misses::.cpu.inst          493                       # number of overall MSHR misses
system.l3cache.overall_mshr_misses::.cpu.data          284                       # number of overall MSHR misses
system.l3cache.overall_mshr_misses::total          777                       # number of overall MSHR misses
system.l3cache.ReadExReq_mshr_miss_latency::.cpu.data     12874000                       # number of ReadExReq MSHR miss cycles
system.l3cache.ReadExReq_mshr_miss_latency::total     12874000                       # number of ReadExReq MSHR miss cycles
system.l3cache.ReadSharedReq_mshr_miss_latency::.cpu.inst     34079000                       # number of ReadSharedReq MSHR miss cycles
system.l3cache.ReadSharedReq_mshr_miss_latency::.cpu.data      7759500                       # number of ReadSharedReq MSHR miss cycles
system.l3cache.ReadSharedReq_mshr_miss_latency::total     41838500                       # number of ReadSharedReq MSHR miss cycles
system.l3cache.demand_mshr_miss_latency::.cpu.inst     34079000                       # number of demand (read+write) MSHR miss cycles
system.l3cache.demand_mshr_miss_latency::.cpu.data     20633500                       # number of demand (read+write) MSHR miss cycles
system.l3cache.demand_mshr_miss_latency::total     54712500                       # number of demand (read+write) MSHR miss cycles
system.l3cache.overall_mshr_miss_latency::.cpu.inst     34079000                       # number of overall MSHR miss cycles
system.l3cache.overall_mshr_miss_latency::.cpu.data     20633500                       # number of overall MSHR miss cycles
system.l3cache.overall_mshr_miss_latency::total     54712500                       # number of overall MSHR miss cycles
system.l3cache.ReadExReq_mshr_miss_rate::.cpu.data            1                       # mshr miss rate for ReadExReq accesses
system.l3cache.ReadExReq_mshr_miss_rate::total            1                       # mshr miss rate for ReadExReq accesses
system.l3cache.ReadSharedReq_mshr_miss_rate::.cpu.inst            1                       # mshr miss rate for ReadSharedReq accesses
system.l3cache.ReadSharedReq_mshr_miss_rate::.cpu.data            1                       # mshr miss rate for ReadSharedReq accesses
system.l3cache.ReadSharedReq_mshr_miss_rate::total            1                       # mshr miss rate for ReadSharedReq accesses
system.l3cache.demand_mshr_miss_rate::.cpu.inst            1                       # mshr miss rate for demand accesses
system.l3cache.demand_mshr_miss_rate::.cpu.data            1                       # mshr miss rate for demand accesses
system.l3cache.demand_mshr_miss_rate::total            1                       # mshr miss rate for demand accesses
system.l3cache.overall_mshr_miss_rate::.cpu.inst            1                       # mshr miss rate for overall accesses
system.l3cache.overall_mshr_miss_rate::.cpu.data            1                       # mshr miss rate for overall accesses
system.l3cache.overall_mshr_miss_rate::total            1                       # mshr miss rate for overall accesses
system.l3cache.ReadExReq_avg_mshr_miss_latency::.cpu.data 73988.505747                       # average ReadExReq mshr miss latency
system.l3cache.ReadExReq_avg_mshr_miss_latency::total 73988.505747                       # average ReadExReq mshr miss latency
system.l3cache.ReadSharedReq_avg_mshr_miss_latency::.cpu.inst 69125.760649                       # average ReadSharedReq mshr miss latency
system.l3cache.ReadSharedReq_avg_mshr_miss_latency::.cpu.data 70540.909091                       # average ReadSharedReq mshr miss latency
system.l3cache.ReadSharedReq_avg_mshr_miss_latency::total 69383.913765                       # average ReadSharedReq mshr miss latency
system.l3cache.demand_avg_mshr_miss_latency::.cpu.inst 69125.760649                       # average overall mshr miss latency
system.l3cache.demand_avg_mshr_miss_latency::.cpu.data 72653.169014                       # average overall mshr miss latency
system.l3cache.demand_avg_mshr_miss_latency::total 70415.057915                       # average overall mshr miss latency
system.l3cache.overall_avg_mshr_miss_latency::.cpu.inst 69125.760649                       # average overall mshr miss latency
system.l3cache.overall_avg_mshr_miss_latency::.cpu.data 72653.169014                       # average overall mshr miss latency
system.l3cache.overall_avg_mshr_miss_latency::total 70415.057915                       # average overall mshr miss latency
system.l3cache.replacements                         0                       # number of replacements
system.membus.snoop_filter.tot_requests           777                       # Total number of requests made to the snoop filter.
system.membus.snoop_filter.hit_single_requests            0                       # Number of requests hitting in the snoop filter with a single holder of the requested data.
system.membus.snoop_filter.hit_multi_requests            0                       # Number of requests hitting in the snoop filter with multiple (>1) holders of the requested data.
system.membus.snoop_filter.tot_snoops               0                       # Total number of snoops made to the snoop filter.
system.membus.snoop_filter.hit_single_snoops            0                       # Number of snoops hitting in the snoop filter with a single holder of the requested data.
system.membus.snoop_filter.hit_multi_snoops            0                       # Number of snoops hitting in the snoop filter with multiple (>1) holders of the requested data.
system.membus.pwrStateResidencyTicks::UNDEFINED  14446190500                       # Cumulative time (in ticks) in various power states
system.membus.trans_dist::ReadResp                603                       # Transaction distribution
system.membus.trans_dist::ReadExReq               174                       # Transaction distribution
system.membus.trans_dist::ReadExResp              174                       # Transaction distribution
system.membus.trans_dist::ReadSharedReq           603                       # Transaction distribution
system.membus.pkt_count_system.l3cache.mem_side::system.mem_ctrl.port         1554                       # Packet count per connected master and slave (bytes)
system.membus.pkt_count_system.l3cache.mem_side::total         1554                       # Packet count per connected master and slave (bytes)
system.membus.pkt_count::total                   1554                       # Packet count per connected master and slave (bytes)
system.membus.pkt_size_system.l3cache.mem_side::system.mem_ctrl.port        49728                       # Cumulative packet size per connected master and slave (bytes)
system.membus.pkt_size_system.l3cache.mem_side::total        49728                       # Cumulative packet size per connected master and slave (bytes)
system.membus.pkt_size::total                   49728                       # Cumulative packet size per connected master and slave (bytes)
system.membus.snoops                                0                       # Total snoops (count)
system.membus.snoopTraffic                          0                       # Total snoop traffic (bytes)
system.membus.snoop_fanout::samples               777                       # Request fanout histogram
system.membus.snoop_fanout::mean                    0                       # Request fanout histogram
system.membus.snoop_fanout::stdev                   0                       # Request fanout histogram
system.membus.snoop_fanout::underflows              0      0.00%      0.00% # Request fanout histogram
system.membus.snoop_fanout::0                     777    100.00%    100.00% # Request fanout histogram
system.membus.snoop_fanout::1                       0      0.00%    100.00% # Request fanout histogram
system.membus.snoop_fanout::overflows               0      0.00%    100.00% # Request fanout histogram
system.membus.snoop_fanout::min_value               0                       # Request fanout histogram
system.membus.snoop_fanout::max_value               0                       # Request fanout histogram
system.membus.snoop_fanout::total                 777                       # Request fanout histogram
system.membus.reqLayer0.occupancy              388500                       # Layer occupancy (ticks)
system.membus.reqLayer0.utilization               0.0                       # Layer utilization (%)
system.membus.respLayer0.occupancy            2111750                       # Layer occupancy (ticks)
system.membus.respLayer0.utilization              0.0                       # Layer utilization (%)

---------- End Simulation Statistics   ----------
