
---------- Begin Simulation Statistics ----------
sim_seconds                                  0.029052                       # Number of seconds simulated
sim_ticks                                 29051653000                       # Number of ticks simulated
final_tick                                29051653000                       # Number of ticks from beginning of simulation (restored from checkpoints and never reset)
sim_freq                                 1000000000000                       # Frequency of simulated ticks
host_inst_rate                                 104527                       # Simulator instruction rate (inst/s)
host_op_rate                                   197860                       # Simulator op (including micro ops) rate (op/s)
host_tick_rate                               70498191                       # Simulator tick rate (ticks/s)
host_mem_usage                                 680104                       # Number of bytes of host memory used
host_seconds                                   412.09                       # Real time elapsed on the host
sim_insts                                    43074787                       # Number of instructions simulated
sim_ops                                      81536281                       # Number of ops (including micro ops) simulated
system.clk_domain.voltage_domain.voltage            1                       # Voltage in Volts
system.clk_domain.clock                           500                       # Clock period in ticks
system.mem_ctrl.pwrStateResidencyTicks::UNDEFINED  29051653000                       # Cumulative time (in ticks) in various power states
system.mem_ctrl.bytes_read::.cpu.inst           59968                       # Number of bytes read from this memory
system.mem_ctrl.bytes_read::.cpu.data         1579392                       # Number of bytes read from this memory
system.mem_ctrl.bytes_read::total             1639360                       # Number of bytes read from this memory
system.mem_ctrl.bytes_inst_read::.cpu.inst        59968                       # Number of instructions bytes read from this memory
system.mem_ctrl.bytes_inst_read::total          59968                       # Number of instructions bytes read from this memory
system.mem_ctrl.num_reads::.cpu.inst              937                       # Number of read requests responded to by this memory
system.mem_ctrl.num_reads::.cpu.data            24678                       # Number of read requests responded to by this memory
system.mem_ctrl.num_reads::total                25615                       # Number of read requests responded to by this memory
system.mem_ctrl.bw_read::.cpu.inst            2064185                       # Total read bandwidth from this memory (bytes/s)
system.mem_ctrl.bw_read::.cpu.data           54364962                       # Total read bandwidth from this memory (bytes/s)
system.mem_ctrl.bw_read::total               56429147                       # Total read bandwidth from this memory (bytes/s)
system.mem_ctrl.bw_inst_read::.cpu.inst       2064185                       # Instruction read bandwidth from this memory (bytes/s)
system.mem_ctrl.bw_inst_read::total           2064185                       # Instruction read bandwidth from this memory (bytes/s)
system.mem_ctrl.bw_total::.cpu.inst           2064185                       # Total bandwidth to/from this memory (bytes/s)
system.mem_ctrl.bw_total::.cpu.data          54364962                       # Total bandwidth to/from this memory (bytes/s)
system.mem_ctrl.bw_total::total              56429147                       # Total bandwidth to/from this memory (bytes/s)
system.mem_ctrl.avgPriority_.cpu.inst::samples       937.00                       # Average QoS priority value for accepted requests
system.mem_ctrl.avgPriority_.cpu.data::samples     24678.00                       # Average QoS priority value for accepted requests
system.mem_ctrl.priorityMinLatency       0.000000018750                       # per QoS priority minimum request to response latency (s)
system.mem_ctrl.priorityMaxLatency       0.000001182250                       # per QoS priority maximum request to response latency (s)
system.mem_ctrl.numReadWriteTurnArounds             0                       # Number of turnarounds from READ to WRITE
system.mem_ctrl.numWriteReadTurnArounds             0                       # Number of turnarounds from WRITE to READ
system.mem_ctrl.numStayReadState                55078                       # Number of times bus staying in READ state
system.mem_ctrl.numStayWriteState                   0                       # Number of times bus staying in WRITE state
system.mem_ctrl.readReqs                        25615                       # Number of read requests accepted
system.mem_ctrl.writeReqs                           0                       # Number of write requests accepted
system.mem_ctrl.readBursts                      25615                       # Number of DRAM read bursts, including those serviced by the write queue
system.mem_ctrl.writeBursts                         0                       # Number of DRAM write bursts, including those merged in the write queue
system.mem_ctrl.bytesReadDRAM                 1639360                       # Total number of bytes read from DRAM
system.mem_ctrl.bytesReadWrQ                        0                       # Total number of bytes read from write queue
system.mem_ctrl.bytesWritten                        0                       # Total number of bytes written to DRAM
system.mem_ctrl.bytesReadSys                  1639360                       # Total read bytes from the system interface side
system.mem_ctrl.bytesWrittenSys                     0                       # Total written bytes from the system interface side
system.mem_ctrl.servicedByWrQ                       0                       # Number of DRAM read bursts serviced by the write queue
system.mem_ctrl.mergedWrBursts                      0                       # Number of DRAM write bursts merged with an existing one
system.mem_ctrl.neitherReadNorWriteReqs             0                       # Number of requests that are neither read nor write
system.mem_ctrl.perBankRdBursts::0               1742                       # Per bank write bursts
system.mem_ctrl.perBankRdBursts::1               1770                       # Per bank write bursts
system.mem_ctrl.perBankRdBursts::2               1600                       # Per bank write bursts
system.mem_ctrl.perBankRdBursts::3               1493                       # Per bank write bursts
system.mem_ctrl.perBankRdBursts::4               1465                       # Per bank write bursts
system.mem_ctrl.perBankRdBursts::5               1546                       # Per bank write bursts
system.mem_ctrl.perBankRdBursts::6               1552                       # Per bank write bursts
system.mem_ctrl.perBankRdBursts::7               1612                       # Per bank write bursts
system.mem_ctrl.perBankRdBursts::8               1608                       # Per bank write bursts
system.mem_ctrl.perBankRdBursts::9               1566                       # Per bank write bursts
system.mem_ctrl.perBankRdBursts::10              1584                       # Per bank write bursts
system.mem_ctrl.perBankRdBursts::11              1602                       # Per bank write bursts
system.mem_ctrl.perBankRdBursts::12              1593                       # Per bank write bursts
system.mem_ctrl.perBankRdBursts::13              1590                       # Per bank write bursts
system.mem_ctrl.perBankRdBursts::14              1646                       # Per bank write bursts
system.mem_ctrl.perBankRdBursts::15              1646                       # Per bank write bursts
system.mem_ctrl.perBankWrBursts::0                  0                       # Per bank write bursts
system.mem_ctrl.perBankWrBursts::1                  0                       # Per bank write bursts
system.mem_ctrl.perBankWrBursts::2                  0                       # Per bank write bursts
system.mem_ctrl.perBankWrBursts::3                  0                       # Per bank write bursts
system.mem_ctrl.perBankWrBursts::4                  0                       # Per bank write bursts
system.mem_ctrl.perBankWrBursts::5                  0                       # Per bank write bursts
system.mem_ctrl.perBankWrBursts::6                  0                       # Per bank write bursts
system.mem_ctrl.perBankWrBursts::7                  0                       # Per bank write bursts
system.mem_ctrl.perBankWrBursts::8                  0                       # Per bank write bursts
system.mem_ctrl.perBankWrBursts::9                  0                       # Per bank write bursts
system.mem_ctrl.perBankWrBursts::10                 0                       # Per bank write bursts
system.mem_ctrl.perBankWrBursts::11                 0                       # Per bank write bursts
system.mem_ctrl.perBankWrBursts::12                 0                       # Per bank write bursts
system.mem_ctrl.perBankWrBursts::13                 0                       # Per bank write bursts
system.mem_ctrl.perBankWrBursts::14                 0                       # Per bank write bursts
system.mem_ctrl.perBankWrBursts::15                 0                       # Per bank write bursts
system.mem_ctrl.numRdRetry                          0                       # Number of times read queue was full causing retry
system.mem_ctrl.numWrRetry                          0                       # Number of times write queue was full causing retry
system.mem_ctrl.totGap                    29051569000                       # Total gap between requests
system.mem_ctrl.readPktSize::0                      0                       # Read request sizes (log2)
system.mem_ctrl.readPktSize::1                      0                       # Read request sizes (log2)
system.mem_ctrl.readPktSize::2                      0                       # Read request sizes (log2)
system.mem_ctrl.readPktSize::3                      0                       # Read request sizes (log2)
system.mem_ctrl.readPktSize::4                      0                       # Read request sizes (log2)
system.mem_ctrl.readPktSize::5                      0                       # Read request sizes (log2)
system.mem_ctrl.readPktSize::6                  25615                       # Read request sizes (log2)
system.mem_ctrl.writePktSize::0                     0                       # Write request sizes (log2)
system.mem_ctrl.writePktSize::1                     0                       # Write request sizes (log2)
system.mem_ctrl.writePktSize::2                     0                       # Write request sizes (log2)
system.mem_ctrl.writePktSize::3                     0                       # Write request sizes (log2)
system.mem_ctrl.writePktSize::4                     0                       # Write request sizes (log2)
system.mem_ctrl.writePktSize::5                     0                       # Write request sizes (log2)
system.mem_ctrl.writePktSize::6                     0                       # Write request sizes (log2)
system.mem_ctrl.rdQLenPdf::0                    25213                       # What read queue length does an incoming req see
system.mem_ctrl.rdQLenPdf::1                      317                       # What read queue length does an incoming req see
system.mem_ctrl.rdQLenPdf::2                       67                       # What read queue length does an incoming req see
system.mem_ctrl.rdQLenPdf::3                       15                       # What read queue length does an incoming req see
system.mem_ctrl.rdQLenPdf::4                        2                       # What read queue length does an incoming req see
system.mem_ctrl.rdQLenPdf::5                        1                       # What read queue length does an incoming req see
system.mem_ctrl.rdQLenPdf::6                        0                       # What read queue length does an incoming req see
system.mem_ctrl.rdQLenPdf::7                        0                       # What read queue length does an incoming req see
system.mem_ctrl.rdQLenPdf::8                        0                       # What read queue length does an incoming req see
system.mem_ctrl.rdQLenPdf::9                        0                       # What read queue length does an incoming req see
system.mem_ctrl.rdQLenPdf::10                       0                       # What read queue length does an incoming req see
system.mem_ctrl.rdQLenPdf::11                       0                       # What read queue length does an incoming req see
system.mem_ctrl.rdQLenPdf::12                       0                       # What read queue length does an incoming req see
system.mem_ctrl.rdQLenPdf::13                       0                       # What read queue length does an incoming req see
system.mem_ctrl.rdQLenPdf::14                       0                       # What read queue length does an incoming req see
system.mem_ctrl.rdQLenPdf::15                       0                       # What read queue length does an incoming req see
system.mem_ctrl.rdQLenPdf::16                       0                       # What read queue length does an incoming req see
system.mem_ctrl.rdQLenPdf::17                       0                       # What read queue length does an incoming req see
system.mem_ctrl.rdQLenPdf::18                       0                       # What read queue length does an incoming req see
system.mem_ctrl.rdQLenPdf::19                       0                       # What read queue length does an incoming req see
system.mem_ctrl.rdQLenPdf::20                       0                       # What read queue length does an incoming req see
system.mem_ctrl.rdQLenPdf::21                       0                       # What read queue length does an incoming req see
system.mem_ctrl.rdQLenPdf::22                       0                       # What read queue length does an incoming req see
system.mem_ctrl.rdQLenPdf::23                       0                       # What read queue length does an incoming req see
system.mem_ctrl.rdQLenPdf::24                       0                       # What read queue length does an incoming req see
system.mem_ctrl.rdQLenPdf::25                       0                       # What read queue length does an incoming req see
system.mem_ctrl.rdQLenPdf::26                       0                       # What read queue length does an incoming req see
system.mem_ctrl.rdQLenPdf::27                       0                       # What read queue length does an incoming req see
system.mem_ctrl.rdQLenPdf::28                       0                       # What read queue length does an incoming req see
system.mem_ctrl.rdQLenPdf::29                       0                       # What read queue length does an incoming req see
system.mem_ctrl.rdQLenPdf::30                       0                       # What read queue length does an incoming req see
system.mem_ctrl.rdQLenPdf::31                       0                       # What read queue length does an incoming req see
system.mem_ctrl.wrQLenPdf::0                        0                       # What write queue length does an incoming req see
system.mem_ctrl.wrQLenPdf::1                        0                       # What write queue length does an incoming req see
system.mem_ctrl.wrQLenPdf::2                        0                       # What write queue length does an incoming req see
system.mem_ctrl.wrQLenPdf::3                        0                       # What write queue length does an incoming req see
system.mem_ctrl.wrQLenPdf::4                        0                       # What write queue length does an incoming req see
system.mem_ctrl.wrQLenPdf::5                        0                       # What write queue length does an incoming req see
system.mem_ctrl.wrQLenPdf::6                        0                       # What write queue length does an incoming req see
system.mem_ctrl.wrQLenPdf::7                        0                       # What write queue length does an incoming req see
system.mem_ctrl.wrQLenPdf::8                        0                       # What write queue length does an incoming req see
system.mem_ctrl.wrQLenPdf::9                        0                       # What write queue length does an incoming req see
system.mem_ctrl.wrQLenPdf::10                       0                       # What write queue length does an incoming req see
system.mem_ctrl.wrQLenPdf::11                       0                       # What write queue length does an incoming req see
system.mem_ctrl.wrQLenPdf::12                       0                       # What write queue length does an incoming req see
system.mem_ctrl.wrQLenPdf::13                       0                       # What write queue length does an incoming req see
system.mem_ctrl.wrQLenPdf::14                       0                       # What write queue length does an incoming req see
system.mem_ctrl.wrQLenPdf::15                       0                       # What write queue length does an incoming req see
system.mem_ctrl.wrQLenPdf::16                       0                       # What write queue length does an incoming req see
system.mem_ctrl.wrQLenPdf::17                       0                       # What write queue length does an incoming req see
system.mem_ctrl.wrQLenPdf::18                       0                       # What write queue length does an incoming req see
system.mem_ctrl.wrQLenPdf::19                       0                       # What write queue length does an incoming req see
system.mem_ctrl.wrQLenPdf::20                       0                       # What write queue length does an incoming req see
system.mem_ctrl.wrQLenPdf::21                       0                       # What write queue length does an incoming req see
system.mem_ctrl.wrQLenPdf::22                       0                       # What write queue length does an incoming req see
system.mem_ctrl.wrQLenPdf::23                       0                       # What write queue length does an incoming req see
system.mem_ctrl.wrQLenPdf::24                       0                       # What write queue length does an incoming req see
system.mem_ctrl.wrQLenPdf::25                       0                       # What write queue length does an incoming req see
system.mem_ctrl.wrQLenPdf::26                       0                       # What write queue length does an incoming req see
system.mem_ctrl.wrQLenPdf::27                       0                       # What write queue length does an incoming req see
system.mem_ctrl.wrQLenPdf::28                       0                       # What write queue length does an incoming req see
system.mem_ctrl.wrQLenPdf::29                       0                       # What write queue length does an incoming req see
system.mem_ctrl.wrQLenPdf::30                       0                       # What write queue length does an incoming req see
system.mem_ctrl.wrQLenPdf::31                       0                       # What write queue length does an incoming req see
system.mem_ctrl.wrQLenPdf::32                       0                       # What write queue length does an incoming req see
system.mem_ctrl.wrQLenPdf::33                       0                       # What write queue length does an incoming req see
system.mem_ctrl.wrQLenPdf::34                       0                       # What write queue length does an incoming req see
system.mem_ctrl.wrQLenPdf::35                       0                       # What write queue length does an incoming req see
system.mem_ctrl.wrQLenPdf::36                       0                       # What write queue length does an incoming req see
system.mem_ctrl.wrQLenPdf::37                       0                       # What write queue length does an incoming req see
system.mem_ctrl.wrQLenPdf::38                       0                       # What write queue length does an incoming req see
system.mem_ctrl.wrQLenPdf::39                       0                       # What write queue length does an incoming req see
system.mem_ctrl.wrQLenPdf::40                       0                       # What write queue length does an incoming req see
system.mem_ctrl.wrQLenPdf::41                       0                       # What write queue length does an incoming req see
system.mem_ctrl.wrQLenPdf::42                       0                       # What write queue length does an incoming req see
system.mem_ctrl.wrQLenPdf::43                       0                       # What write queue length does an incoming req see
system.mem_ctrl.wrQLenPdf::44                       0                       # What write queue length does an incoming req see
system.mem_ctrl.wrQLenPdf::45                       0                       # What write queue length does an incoming req see
system.mem_ctrl.wrQLenPdf::46                       0                       # What write queue length does an incoming req see
system.mem_ctrl.wrQLenPdf::47                       0                       # What write queue length does an incoming req see
system.mem_ctrl.wrQLenPdf::48                       0                       # What write queue length does an incoming req see
system.mem_ctrl.wrQLenPdf::49                       0                       # What write queue length does an incoming req see
system.mem_ctrl.wrQLenPdf::50                       0                       # What write queue length does an incoming req see
system.mem_ctrl.wrQLenPdf::51                       0                       # What write queue length does an incoming req see
system.mem_ctrl.wrQLenPdf::52                       0                       # What write queue length does an incoming req see
system.mem_ctrl.wrQLenPdf::53                       0                       # What write queue length does an incoming req see
system.mem_ctrl.wrQLenPdf::54                       0                       # What write queue length does an incoming req see
system.mem_ctrl.wrQLenPdf::55                       0                       # What write queue length does an incoming req see
system.mem_ctrl.wrQLenPdf::56                       0                       # What write queue length does an incoming req see
system.mem_ctrl.wrQLenPdf::57                       0                       # What write queue length does an incoming req see
system.mem_ctrl.wrQLenPdf::58                       0                       # What write queue length does an incoming req see
system.mem_ctrl.wrQLenPdf::59                       0                       # What write queue length does an incoming req see
system.mem_ctrl.wrQLenPdf::60                       0                       # What write queue length does an incoming req see
system.mem_ctrl.wrQLenPdf::61                       0                       # What write queue length does an incoming req see
system.mem_ctrl.wrQLenPdf::62                       0                       # What write queue length does an incoming req see
system.mem_ctrl.wrQLenPdf::63                       0                       # What write queue length does an incoming req see
system.mem_ctrl.bytesPerActivate::samples         4369                       # Bytes accessed per row activation
system.mem_ctrl.bytesPerActivate::mean     374.947127                       # Bytes accessed per row activation
system.mem_ctrl.bytesPerActivate::gmean    342.460014                       # Bytes accessed per row activation
system.mem_ctrl.bytesPerActivate::stdev    132.749196                       # Bytes accessed per row activation
system.mem_ctrl.bytesPerActivate::0-127           196      4.49%      4.49% # Bytes accessed per row activation
system.mem_ctrl.bytesPerActivate::128-255          295      6.75%     11.24% # Bytes accessed per row activation
system.mem_ctrl.bytesPerActivate::256-383         1096     25.09%     36.32% # Bytes accessed per row activation
system.mem_ctrl.bytesPerActivate::384-511         2034     46.56%     82.88% # Bytes accessed per row activation
system.mem_ctrl.bytesPerActivate::512-639          695     15.91%     98.79% # Bytes accessed per row activation
system.mem_ctrl.bytesPerActivate::640-767           16      0.37%     99.15% # Bytes accessed per row activation
system.mem_ctrl.bytesPerActivate::768-895           13      0.30%     99.45% # Bytes accessed per row activation
system.mem_ctrl.bytesPerActivate::896-1023            3      0.07%     99.52% # Bytes accessed per row activation
system.mem_ctrl.bytesPerActivate::1024-1151           21      0.48%    100.00% # Bytes accessed per row activation
system.mem_ctrl.bytesPerActivate::total          4369                       # Bytes accessed per row activation
system.mem_ctrl.masterReadBytes::.cpu.inst        59968                       # Per-master bytes read from memory
system.mem_ctrl.masterReadBytes::.cpu.data      1579392                       # Per-master bytes read from memory
system.mem_ctrl.masterReadRate::.cpu.inst 2064185.469928337727                       # Per-master bytes read from memory rate (Bytes/sec)
system.mem_ctrl.masterReadRate::.cpu.data 54364961.608208663762                       # Per-master bytes read from memory rate (Bytes/sec)
system.mem_ctrl.masterReadAccesses::.cpu.inst          937                       # Per-master read serviced memory accesses
system.mem_ctrl.masterReadAccesses::.cpu.data        24678                       # Per-master read serviced memory accesses
system.mem_ctrl.masterReadTotalLat::.cpu.inst     36778750                       # Per-master read total memory access latency
system.mem_ctrl.masterReadTotalLat::.cpu.data    805980500                       # Per-master read total memory access latency
system.mem_ctrl.masterReadAvgLat::.cpu.inst     39251.60                       # Per-master read average memory access latency
system.mem_ctrl.masterReadAvgLat::.cpu.data     32659.88                       # Per-master read average memory access latency
system.mem_ctrl.totQLat                     362478000                       # Total ticks spent queuing
system.mem_ctrl.totMemAccLat                842759250                       # Total ticks spent from burst creation until serviced by the DRAM
system.mem_ctrl.totBusLat                   128075000                       # Total ticks spent in databus transfers
system.mem_ctrl.avgQLat                      14151.01                       # Average queueing delay per DRAM burst
system.mem_ctrl.avgBusLat                     5000.00                       # Average bus latency per DRAM burst
system.mem_ctrl.avgMemAccLat                 32901.01                       # Average memory access latency per DRAM burst
system.mem_ctrl.avgRdBW                         56.43                       # Average DRAM read bandwidth in MiByte/s
system.mem_ctrl.avgWrBW                          0.00                       # Average achieved write bandwidth in MiByte/s
system.mem_ctrl.avgRdBWSys                      56.43                       # Average system read bandwidth in MiByte/s
system.mem_ctrl.avgWrBWSys                       0.00                       # Average system write bandwidth in MiByte/s
system.mem_ctrl.peakBW                       12800.00                       # Theoretical peak bandwidth in MiByte/s
system.mem_ctrl.busUtil                          0.44                       # Data bus utilization in percentage
system.mem_ctrl.busUtilRead                      0.44                       # Data bus utilization in percentage for reads
system.mem_ctrl.busUtilWrite                     0.00                       # Data bus utilization in percentage for writes
system.mem_ctrl.avgRdQLen                        1.00                       # Average read queue length when enqueuing
system.mem_ctrl.avgWrQLen                        0.00                       # Average write queue length when enqueuing
system.mem_ctrl.readRowHits                     21241                       # Number of row buffer hits during reads
system.mem_ctrl.writeRowHits                        0                       # Number of row buffer hits during writes
system.mem_ctrl.readRowHitRate                  82.92                       # Row buffer hit rate for reads
system.mem_ctrl.writeRowHitRate                   nan                       # Row buffer hit rate for writes
system.mem_ctrl.avgGap                     1134162.37                       # Average gap between requests
system.mem_ctrl.pageHitRate                     82.92                       # Row buffer hit rate, read and write combined
system.mem_ctrl_0.actEnergy                  15536640                       # Energy for activate commands per rank (pJ)
system.mem_ctrl_0.preEnergy                   8254125                       # Energy for precharge commands per rank (pJ)
system.mem_ctrl_0.readEnergy                 91249200                       # Energy for read commands per rank (pJ)
system.mem_ctrl_0.writeEnergy                       0                       # Energy for write commands per rank (pJ)
system.mem_ctrl_0.refreshEnergy          1183182000.000000                       # Energy for refresh commands per rank (pJ)
system.mem_ctrl_0.actBackEnergy             373503900                       # Energy for active background per rank (pJ)
system.mem_ctrl_0.preBackEnergy              27067680                       # Energy for precharge background per rank (pJ)
system.mem_ctrl_0.actPowerDownEnergy       5730970380                       # Energy for active power-down per rank (pJ)
system.mem_ctrl_0.prePowerDownEnergy        591387840                       # Energy for precharge power-down per rank (pJ)
system.mem_ctrl_0.selfRefreshEnergy        3385682520                       # Energy for self refresh per rank (pJ)
system.mem_ctrl_0.totalEnergy             11406834285                       # Total energy per rank (pJ)
system.mem_ctrl_0.averagePower             392.639768                       # Core power per rank (mW)
system.mem_ctrl_0.totalIdleTime           28162142250                       # Total Idle time Per DRAM Rank
system.mem_ctrl_0.memoryStateTime::IDLE      17784500                       # Time in different power states
system.mem_ctrl_0.memoryStateTime::REF      500500000                       # Time in different power states
system.mem_ctrl_0.memoryStateTime::SREF   14054088000                       # Time in different power states
system.mem_ctrl_0.memoryStateTime::PRE_PDN   1540057750                       # Time in different power states
system.mem_ctrl_0.memoryStateTime::ACT      371185500                       # Time in different power states
system.mem_ctrl_0.memoryStateTime::ACT_PDN  12568037250                       # Time in different power states
system.mem_ctrl_1.actEnergy                  15693720                       # Energy for activate commands per rank (pJ)
system.mem_ctrl_1.preEnergy                   8326230                       # Energy for precharge commands per rank (pJ)
system.mem_ctrl_1.readEnergy                 91641900                       # Energy for read commands per rank (pJ)
system.mem_ctrl_1.writeEnergy                       0                       # Energy for write commands per rank (pJ)
system.mem_ctrl_1.refreshEnergy          1201621200.000000                       # Energy for refresh commands per rank (pJ)
system.mem_ctrl_1.actBackEnergy             380005320                       # Energy for active background per rank (pJ)
system.mem_ctrl_1.preBackEnergy              27820320                       # Energy for precharge background per rank (pJ)
system.mem_ctrl_1.actPowerDownEnergy       5793522750                       # Energy for active power-down per rank (pJ)
system.mem_ctrl_1.prePowerDownEnergy        622188480                       # Energy for precharge power-down per rank (pJ)
system.mem_ctrl_1.selfRefreshEnergy        3329617620                       # Energy for self refresh per rank (pJ)
system.mem_ctrl_1.totalEnergy             11470437540                       # Total energy per rank (pJ)
system.mem_ctrl_1.averagePower             394.829084                       # Core power per rank (mW)
system.mem_ctrl_1.totalIdleTime           28145599250                       # Total Idle time Per DRAM Rank
system.mem_ctrl_1.memoryStateTime::IDLE      18370500                       # Time in different power states
system.mem_ctrl_1.memoryStateTime::REF      508300000                       # Time in different power states
system.mem_ctrl_1.memoryStateTime::SREF   13820484000                       # Time in different power states
system.mem_ctrl_1.memoryStateTime::PRE_PDN   1620269750                       # Time in different power states
system.mem_ctrl_1.memoryStateTime::ACT      379131000                       # Time in different power states
system.mem_ctrl_1.memoryStateTime::ACT_PDN  12705097750                       # Time in different power states
system.pwrStateResidencyTicks::UNDEFINED  29051653000                       # Cumulative time (in ticks) in various power states
system.cpu.branchPred.lookups                11317410                       # Number of BP lookups
system.cpu.branchPred.condPredicted          11317410                       # Number of conditional branches predicted
system.cpu.branchPred.condIncorrect            611602                       # Number of conditional branches incorrect
system.cpu.branchPred.BTBLookups              7540456                       # Number of BTB lookups
system.cpu.branchPred.BTBHits                       0                       # Number of BTB hits
system.cpu.branchPred.BTBCorrect                    0                       # Number of correct BTB predictions (this stat may not work properly.
system.cpu.branchPred.BTBHitPct              0.000000                       # BTB Hit Percentage
system.cpu.branchPred.usedRAS                 2000876                       # Number of times the RAS was used to get a target.
system.cpu.branchPred.RASInCorrect             163561                       # Number of incorrect RAS predictions.
system.cpu.branchPred.indirectLookups         7540456                       # Number of indirect predictor lookups.
system.cpu.branchPred.indirectHits            6395851                       # Number of indirect target hits.
system.cpu.branchPred.indirectMisses          1144605                       # Number of indirect misses.
system.cpu.branchPredindirectMispredicted       353652                       # Number of mispredicted indirect branches.
system.cpu.dtb.walker.pwrStateResidencyTicks::UNDEFINED  29051653000                       # Cumulative time (in ticks) in various power states
system.cpu.dtb.rdAccesses                    16894378                       # TLB accesses on read requests
system.cpu.dtb.wrAccesses                     7453241                       # TLB accesses on write requests
system.cpu.dtb.rdMisses                         21193                       # TLB misses on read requests
system.cpu.dtb.wrMisses                           425                       # TLB misses on write requests
system.cpu.apic_clk_domain.clock                 8000                       # Clock period in ticks
system.cpu.interrupts.pwrStateResidencyTicks::UNDEFINED  29051653000                       # Cumulative time (in ticks) in various power states
system.cpu.itb.walker.pwrStateResidencyTicks::UNDEFINED  29051653000                       # Cumulative time (in ticks) in various power states
system.cpu.itb.rdAccesses                           0                       # TLB accesses on read requests
system.cpu.itb.wrAccesses                     9033152                       # TLB accesses on write requests
system.cpu.itb.rdMisses                             0                       # TLB misses on read requests
system.cpu.itb.wrMisses                           448                       # TLB misses on write requests
system.cpu.workload.numSyscalls                    35                       # Number of system calls
system.cpu.pwrStateResidencyTicks::ON     29051653000                       # Cumulative time (in ticks) in various power states
system.cpu.numCycles                         58103307                       # number of cpu cycles simulated
system.cpu.numWorkItemsStarted                      0                       # number of work items this cpu started
system.cpu.numWorkItemsCompleted                    0                       # number of work items this cpu completed
system.cpu.fetch.icacheStallCycles             562185                       # Number of cycles fetch is stalled on an Icache miss
system.cpu.fetch.Insts                       52752039                       # Number of instructions fetch has processed
system.cpu.fetch.Branches                    11317410                       # Number of branches that fetch encountered
system.cpu.fetch.predictedBranches            8396727                       # Number of branches that fetch has predicted taken
system.cpu.fetch.Cycles                      56883660                       # Number of cycles fetch has run and was not squashing or blocked
system.cpu.fetch.SquashCycles                 1225540                       # Number of cycles fetch has spent squashing
system.cpu.fetch.MiscStallCycles                  230                       # Number of cycles fetch has spent waiting on interrupts, or bad addresses, or out of MSHRs
system.cpu.fetch.PendingTrapStallCycles          3170                       # Number of stall cycles due to pending traps
system.cpu.fetch.PendingQuiesceStallCycles           11                       # Number of stall cycles due to pending quiesce instructions
system.cpu.fetch.CacheLines                   9032762                       # Number of cache lines fetched
system.cpu.fetch.IcacheSquashes                   683                       # Number of outstanding Icache misses that were squashed
system.cpu.fetch.rateDist::samples           58062026                       # Number of instructions fetched each cycle (Total)
system.cpu.fetch.rateDist::mean              1.740298                       # Number of instructions fetched each cycle (Total)
system.cpu.fetch.rateDist::stdev             0.567912                       # Number of instructions fetched each cycle (Total)
system.cpu.fetch.rateDist::underflows               0      0.00%      0.00% # Number of instructions fetched each cycle (Total)
system.cpu.fetch.rateDist::0                  3781788      6.51%      6.51% # Number of instructions fetched each cycle (Total)
system.cpu.fetch.rateDist::1                  7515261     12.94%     19.46% # Number of instructions fetched each cycle (Total)
system.cpu.fetch.rateDist::2                 46764977     80.54%    100.00% # Number of instructions fetched each cycle (Total)
system.cpu.fetch.rateDist::overflows                0      0.00%    100.00% # Number of instructions fetched each cycle (Total)
system.cpu.fetch.rateDist::min_value                0                       # Number of instructions fetched each cycle (Total)
system.cpu.fetch.rateDist::max_value                2                       # Number of instructions fetched each cycle (Total)
system.cpu.fetch.rateDist::total             58062026                       # Number of instructions fetched each cycle (Total)
system.cpu.fetch.branchRate                  0.194781                       # Number of branch fetches per cycle
system.cpu.fetch.rate                        0.907901                       # Number of inst fetches per cycle
system.cpu.decode.IdleCycles                  2223548                       # Number of cycles decode is idle
system.cpu.decode.BlockedCycles               3234806                       # Number of cycles decode is blocked
system.cpu.decode.RunCycles                  51186538                       # Number of cycles decode is running
system.cpu.decode.UnblockCycles                804364                       # Number of cycles decode is unblocking
system.cpu.decode.SquashCycles                 612770                       # Number of cycles decode is squashing
system.cpu.decode.DecodedInsts               96329810                       # Number of instructions handled by decode
system.cpu.decode.SquashedInsts               1955455                       # Number of squashed instructions handled by decode
system.cpu.rename.SquashCycles                 612770                       # Number of cycles rename is squashing
system.cpu.rename.IdleCycles                  4244567                       # Number of cycles rename is idle
system.cpu.rename.BlockCycles                  794180                       # Number of cycles rename is blocking
system.cpu.rename.serializeStallCycles           2462                       # count of cycles rename stalled for serializing inst
system.cpu.rename.RunCycles                  49906998                       # Number of cycles rename is running
system.cpu.rename.UnblockCycles               2501049                       # Number of cycles rename is unblocking
system.cpu.rename.RenamedInsts               94322353                       # Number of instructions processed by rename
system.cpu.rename.SquashedInsts                898987                       # Number of squashed instructions processed by rename
system.cpu.rename.ROBFullEvents                   147                       # Number of times rename has blocked due to ROB full
system.cpu.rename.IQFullEvents                 257518                       # Number of times rename has blocked due to IQ full
system.cpu.rename.LQFullEvents                   3982                       # Number of times rename has blocked due to LQ full
system.cpu.rename.SQFullEvents                1847668                       # Number of times rename has blocked due to SQ full
system.cpu.rename.FullRegisterEvents             4406                       # Number of times there has been no free registers
system.cpu.rename.RenamedOperands            96601885                       # Number of destination operands rename has renamed
system.cpu.rename.RenameLookups             230023146                       # Number of register rename lookups that rename has made
system.cpu.rename.int_rename_lookups        145297585                       # Number of integer rename lookups
system.cpu.rename.fp_rename_lookups            191822                       # Number of floating rename lookups
system.cpu.rename.CommittedMaps              84638613                       # Number of HB maps that are committed
system.cpu.rename.UndoneMaps                 11963272                       # Number of HB maps that are undone due to squashing
system.cpu.rename.serializingInsts                 50                       # count of serializing insts renamed
system.cpu.rename.tempSerializingInsts             51                       # count of temporary serializing insts renamed
system.cpu.rename.skidInsts                   1318711                       # count of insts added to the skid buffer
system.cpu.memDep0.insertedLoads             18507715                       # Number of loads inserted to the mem dependence unit.
system.cpu.memDep0.insertedStores             7830669                       # Number of stores inserted to the mem dependence unit.
system.cpu.memDep0.conflictingLoads           2858005                       # Number of conflicting loads.
system.cpu.memDep0.conflictingStores            48074                       # Number of conflicting stores.
system.cpu.iq.iqInstsAdded                   92456114                       # Number of instructions added to the IQ (excludes non-spec)
system.cpu.iq.iqNonSpecInstsAdded                 299                       # Number of non-speculative instructions added to the IQ
system.cpu.iq.iqInstsIssued                  87837310                       # Number of instructions issued
system.cpu.iq.iqSquashedInstsIssued            559371                       # Number of squashed instructions issued
system.cpu.iq.iqSquashedInstsExamined        10920131                       # Number of squashed instructions iterated over during squash; mainly for profiling
system.cpu.iq.iqSquashedOperandsExamined     15272029                       # Number of squashed operands that are examined and possibly removed from graph
system.cpu.iq.iqSquashedNonSpecRemoved            264                       # Number of squashed non-spec instructions that were removed
system.cpu.iq.issued_per_cycle::samples      58062026                       # Number of insts issued each cycle
system.cpu.iq.issued_per_cycle::mean         1.512819                       # Number of insts issued each cycle
system.cpu.iq.issued_per_cycle::stdev        0.754628                       # Number of insts issued each cycle
system.cpu.iq.issued_per_cycle::underflows            0      0.00%      0.00% # Number of insts issued each cycle
system.cpu.iq.issued_per_cycle::0             9279130     15.98%     15.98% # Number of insts issued each cycle
system.cpu.iq.issued_per_cycle::1             9728482     16.76%     32.74% # Number of insts issued each cycle
system.cpu.iq.issued_per_cycle::2            39054414     67.26%    100.00% # Number of insts issued each cycle
system.cpu.iq.issued_per_cycle::overflows            0      0.00%    100.00% # Number of insts issued each cycle
system.cpu.iq.issued_per_cycle::min_value            0                       # Number of insts issued each cycle
system.cpu.iq.issued_per_cycle::max_value            2                       # Number of insts issued each cycle
system.cpu.iq.issued_per_cycle::total        58062026                       # Number of insts issued each cycle
system.cpu.iq.fu_full::No_OpClass                   0      0.00%      0.00% # attempts to use FU when none available
system.cpu.iq.fu_full::IntAlu                       0      0.00%      0.00% # attempts to use FU when none available
system.cpu.iq.fu_full::IntMult                      0      0.00%      0.00% # attempts to use FU when none available
system.cpu.iq.fu_full::IntDiv                       0      0.00%      0.00% # attempts to use FU when none available
system.cpu.iq.fu_full::FloatAdd                     1      0.00%      0.00% # attempts to use FU when none available
system.cpu.iq.fu_full::FloatCmp                     0      0.00%      0.00% # attempts to use FU when none available
system.cpu.iq.fu_full::FloatCvt                     0      0.00%      0.00% # attempts to use FU when none available
system.cpu.iq.fu_full::FloatMult                    0      0.00%      0.00% # attempts to use FU when none available
system.cpu.iq.fu_full::FloatMultAcc                 0      0.00%      0.00% # attempts to use FU when none available
system.cpu.iq.fu_full::FloatDiv                     0      0.00%      0.00% # attempts to use FU when none available
system.cpu.iq.fu_full::FloatMisc                    0      0.00%      0.00% # attempts to use FU when none available
system.cpu.iq.fu_full::FloatSqrt                    0      0.00%      0.00% # attempts to use FU when none available
system.cpu.iq.fu_full::SimdAdd                    274      0.00%      0.00% # attempts to use FU when none available
system.cpu.iq.fu_full::SimdAddAcc                   0      0.00%      0.00% # attempts to use FU when none available
system.cpu.iq.fu_full::SimdAlu                   4996      0.08%      0.08% # attempts to use FU when none available
system.cpu.iq.fu_full::SimdCmp                      0      0.00%      0.08% # attempts to use FU when none available
system.cpu.iq.fu_full::SimdCvt                   4009      0.06%      0.15% # attempts to use FU when none available
system.cpu.iq.fu_full::SimdMisc                  4449      0.07%      0.22% # attempts to use FU when none available
system.cpu.iq.fu_full::SimdMult                     0      0.00%      0.22% # attempts to use FU when none available
system.cpu.iq.fu_full::SimdMultAcc                  0      0.00%      0.22% # attempts to use FU when none available
system.cpu.iq.fu_full::SimdShift                  989      0.02%      0.23% # attempts to use FU when none available
system.cpu.iq.fu_full::SimdShiftAcc                 0      0.00%      0.23% # attempts to use FU when none available
system.cpu.iq.fu_full::SimdSqrt                     0      0.00%      0.23% # attempts to use FU when none available
system.cpu.iq.fu_full::SimdFloatAdd                 0      0.00%      0.23% # attempts to use FU when none available
system.cpu.iq.fu_full::SimdFloatAlu                 0      0.00%      0.23% # attempts to use FU when none available
system.cpu.iq.fu_full::SimdFloatCmp                 0      0.00%      0.23% # attempts to use FU when none available
system.cpu.iq.fu_full::SimdFloatCvt                 0      0.00%      0.23% # attempts to use FU when none available
system.cpu.iq.fu_full::SimdFloatDiv                 0      0.00%      0.23% # attempts to use FU when none available
system.cpu.iq.fu_full::SimdFloatMisc                0      0.00%      0.23% # attempts to use FU when none available
system.cpu.iq.fu_full::SimdFloatMult                0      0.00%      0.23% # attempts to use FU when none available
system.cpu.iq.fu_full::SimdFloatMultAcc             0      0.00%      0.23% # attempts to use FU when none available
system.cpu.iq.fu_full::SimdFloatSqrt                0      0.00%      0.23% # attempts to use FU when none available
system.cpu.iq.fu_full::SimdAes                      0      0.00%      0.23% # attempts to use FU when none available
system.cpu.iq.fu_full::SimdAesMix                   0      0.00%      0.23% # attempts to use FU when none available
system.cpu.iq.fu_full::SimdSha1Hash                 0      0.00%      0.23% # attempts to use FU when none available
system.cpu.iq.fu_full::SimdSha1Hash2                0      0.00%      0.23% # attempts to use FU when none available
system.cpu.iq.fu_full::SimdSha256Hash               0      0.00%      0.23% # attempts to use FU when none available
system.cpu.iq.fu_full::SimdSha256Hash2              0      0.00%      0.23% # attempts to use FU when none available
system.cpu.iq.fu_full::SimdShaSigma2                0      0.00%      0.23% # attempts to use FU when none available
system.cpu.iq.fu_full::SimdShaSigma3                0      0.00%      0.23% # attempts to use FU when none available
system.cpu.iq.fu_full::MemRead                4832719     77.15%     77.39% # attempts to use FU when none available
system.cpu.iq.fu_full::MemWrite               1416535     22.61%    100.00% # attempts to use FU when none available
system.cpu.iq.fu_full::FloatMemRead                 0      0.00%    100.00% # attempts to use FU when none available
system.cpu.iq.fu_full::FloatMemWrite                0      0.00%    100.00% # attempts to use FU when none available
system.cpu.iq.fu_full::IprAccess                    0      0.00%    100.00% # attempts to use FU when none available
system.cpu.iq.fu_full::InstPrefetch                 0      0.00%    100.00% # attempts to use FU when none available
system.cpu.iq.FU_type_0::No_OpClass             19848      0.02%      0.02% # Type of FU issued
system.cpu.iq.FU_type_0::IntAlu              62994398     71.72%     71.74% # Type of FU issued
system.cpu.iq.FU_type_0::IntMult                 1406      0.00%     71.74% # Type of FU issued
system.cpu.iq.FU_type_0::IntDiv                    26      0.00%     71.74% # Type of FU issued
system.cpu.iq.FU_type_0::FloatAdd                2386      0.00%     71.74% # Type of FU issued
system.cpu.iq.FU_type_0::FloatCmp                   0      0.00%     71.74% # Type of FU issued
system.cpu.iq.FU_type_0::FloatCvt                   0      0.00%     71.74% # Type of FU issued
system.cpu.iq.FU_type_0::FloatMult                  0      0.00%     71.74% # Type of FU issued
system.cpu.iq.FU_type_0::FloatMultAcc               0      0.00%     71.74% # Type of FU issued
system.cpu.iq.FU_type_0::FloatDiv                   0      0.00%     71.74% # Type of FU issued
system.cpu.iq.FU_type_0::FloatMisc                  0      0.00%     71.74% # Type of FU issued
system.cpu.iq.FU_type_0::FloatSqrt                  0      0.00%     71.74% # Type of FU issued
system.cpu.iq.FU_type_0::SimdAdd                 4431      0.01%     71.75% # Type of FU issued
system.cpu.iq.FU_type_0::SimdAddAcc                 0      0.00%     71.75% # Type of FU issued
system.cpu.iq.FU_type_0::SimdAlu                12846      0.01%     71.76% # Type of FU issued
system.cpu.iq.FU_type_0::SimdCmp                    0      0.00%     71.76% # Type of FU issued
system.cpu.iq.FU_type_0::SimdCvt                15053      0.02%     71.78% # Type of FU issued
system.cpu.iq.FU_type_0::SimdMisc               17425      0.02%     71.80% # Type of FU issued
system.cpu.iq.FU_type_0::SimdMult                   0      0.00%     71.80% # Type of FU issued
system.cpu.iq.FU_type_0::SimdMultAcc                0      0.00%     71.80% # Type of FU issued
system.cpu.iq.FU_type_0::SimdShift               1655      0.00%     71.80% # Type of FU issued
system.cpu.iq.FU_type_0::SimdShiftAcc               0      0.00%     71.80% # Type of FU issued
system.cpu.iq.FU_type_0::SimdSqrt                   0      0.00%     71.80% # Type of FU issued
system.cpu.iq.FU_type_0::SimdFloatAdd               0      0.00%     71.80% # Type of FU issued
system.cpu.iq.FU_type_0::SimdFloatAlu               0      0.00%     71.80% # Type of FU issued
system.cpu.iq.FU_type_0::SimdFloatCmp               0      0.00%     71.80% # Type of FU issued
system.cpu.iq.FU_type_0::SimdFloatCvt               0      0.00%     71.80% # Type of FU issued
system.cpu.iq.FU_type_0::SimdFloatDiv               0      0.00%     71.80% # Type of FU issued
system.cpu.iq.FU_type_0::SimdFloatMisc              0      0.00%     71.80% # Type of FU issued
system.cpu.iq.FU_type_0::SimdFloatMult              0      0.00%     71.80% # Type of FU issued
system.cpu.iq.FU_type_0::SimdFloatMultAcc            0      0.00%     71.80% # Type of FU issued
system.cpu.iq.FU_type_0::SimdFloatSqrt              0      0.00%     71.80% # Type of FU issued
system.cpu.iq.FU_type_0::SimdAes                    0      0.00%     71.80% # Type of FU issued
system.cpu.iq.FU_type_0::SimdAesMix                 0      0.00%     71.80% # Type of FU issued
system.cpu.iq.FU_type_0::SimdSha1Hash               0      0.00%     71.80% # Type of FU issued
system.cpu.iq.FU_type_0::SimdSha1Hash2              0      0.00%     71.80% # Type of FU issued
system.cpu.iq.FU_type_0::SimdSha256Hash             0      0.00%     71.80% # Type of FU issued
system.cpu.iq.FU_type_0::SimdSha256Hash2            0      0.00%     71.80% # Type of FU issued
system.cpu.iq.FU_type_0::SimdShaSigma2              0      0.00%     71.80% # Type of FU issued
system.cpu.iq.FU_type_0::SimdShaSigma3              0      0.00%     71.80% # Type of FU issued
system.cpu.iq.FU_type_0::MemRead             17202026     19.58%     91.39% # Type of FU issued
system.cpu.iq.FU_type_0::MemWrite             7503909      8.54%     99.93% # Type of FU issued
system.cpu.iq.FU_type_0::FloatMemRead           13776      0.02%     99.95% # Type of FU issued
system.cpu.iq.FU_type_0::FloatMemWrite          48125      0.05%    100.00% # Type of FU issued
system.cpu.iq.FU_type_0::IprAccess                  0      0.00%    100.00% # Type of FU issued
system.cpu.iq.FU_type_0::InstPrefetch               0      0.00%    100.00% # Type of FU issued
system.cpu.iq.FU_type_0::total               87837310                       # Type of FU issued
system.cpu.iq.rate                           1.511744                       # Inst issue rate
system.cpu.iq.fu_busy_cnt                     6263972                       # FU busy when requested
system.cpu.iq.fu_busy_rate                   0.071313                       # FU busy rate (busy events/executed inst)
system.cpu.iq.int_inst_queue_reads          240303316                       # Number of integer instruction queue reads
system.cpu.iq.int_inst_queue_writes         103176326                       # Number of integer instruction queue writes
system.cpu.iq.int_inst_queue_wakeup_accesses     85686223                       # Number of integer instruction queue wakeup accesses
system.cpu.iq.fp_inst_queue_reads              256673                       # Number of floating instruction queue reads
system.cpu.iq.fp_inst_queue_writes             201231                       # Number of floating instruction queue writes
system.cpu.iq.fp_inst_queue_wakeup_accesses       110242                       # Number of floating instruction queue wakeup accesses
system.cpu.iq.vec_inst_queue_reads                  0                       # Number of vector instruction queue reads
system.cpu.iq.vec_inst_queue_writes                 0                       # Number of vector instruction queue writes
system.cpu.iq.vec_inst_queue_wakeup_accesses            0                       # Number of vector instruction queue wakeup accesses
system.cpu.iq.int_alu_accesses               93946090                       # Number of integer alu accesses
system.cpu.iq.fp_alu_accesses                  135344                       # Number of floating point alu accesses
system.cpu.iq.vec_alu_accesses                      0                       # Number of vector alu accesses
system.cpu.iew.lsq.thread0.forwLoads          5282737                       # Number of loads that had data forwarded from stores
system.cpu.iew.lsq.thread0.invAddrLoads             0                       # Number of loads ignored due to an invalid address
system.cpu.iew.lsq.thread0.squashedLoads      2594472                       # Number of loads squashed
system.cpu.iew.lsq.thread0.ignoredResponses        21145                       # Number of memory responses ignored because the instruction is squashed
system.cpu.iew.lsq.thread0.memOrderViolation         1014                       # Number of memory ordering violations
system.cpu.iew.lsq.thread0.squashedStores       714046                       # Number of stores squashed
system.cpu.iew.lsq.thread0.invAddrSwpfs             0                       # Number of software prefetches ignored due to an invalid address
system.cpu.iew.lsq.thread0.blockedLoads             0                       # Number of blocked loads due to partial load-store forwarding
system.cpu.iew.lsq.thread0.rescheduledLoads           93                       # Number of loads that were rescheduled
system.cpu.iew.lsq.thread0.cacheBlocked            16                       # Number of times an access to memory failed due to the cache being blocked
system.cpu.iew.iewIdleCycles                        0                       # Number of cycles IEW is idle
system.cpu.iew.iewSquashCycles                 612770                       # Number of cycles IEW is squashing
system.cpu.iew.iewBlockCycles                  464912                       # Number of cycles IEW is blocking
system.cpu.iew.iewUnblockCycles                 12013                       # Number of cycles IEW is unblocking
system.cpu.iew.iewDispatchedInsts            92456413                       # Number of instructions dispatched to IQ
system.cpu.iew.iewDispSquashedInsts            401658                       # Number of squashed instructions skipped by dispatch
system.cpu.iew.iewDispLoadInsts              18507715                       # Number of dispatched load instructions
system.cpu.iew.iewDispStoreInsts              7830669                       # Number of dispatched store instructions
system.cpu.iew.iewDispNonSpecInsts                117                       # Number of dispatched non-speculative instructions
system.cpu.iew.iewIQFullEvents                    545                       # Number of times the IQ has become full, causing a stall
system.cpu.iew.iewLSQFullEvents                 10395                       # Number of times the LSQ has become full, causing a stall
system.cpu.iew.memOrderViolationEvents           1014                       # Number of memory order violations
system.cpu.iew.predictedTakenIncorrect         210514                       # Number of branches that were predicted taken incorrectly
system.cpu.iew.predictedNotTakenIncorrect       452083                       # Number of branches that were predicted not taken incorrectly
system.cpu.iew.branchMispredicts               662597                       # Number of branch mispredicts detected at execute
system.cpu.iew.iewExecutedInsts              86387734                       # Number of executed instructions
system.cpu.iew.iewExecLoadInsts              16894300                       # Number of load instructions executed
system.cpu.iew.iewExecSquashedInsts           1449576                       # Number of squashed instructions skipped in execute
system.cpu.iew.exec_swp                             0                       # number of swp insts executed
system.cpu.iew.exec_nop                             0                       # number of nop insts executed
system.cpu.iew.exec_refs                     24347519                       # number of memory reference insts executed
system.cpu.iew.exec_branches                  9362448                       # Number of branches executed
system.cpu.iew.exec_stores                    7453219                       # Number of stores executed
system.cpu.iew.exec_rate                     1.486795                       # Inst execution rate
system.cpu.iew.wb_sent                       86126029                       # cumulative count of insts sent to commit
system.cpu.iew.wb_count                      85796465                       # cumulative count of insts written-back
system.cpu.iew.wb_producers                  64862606                       # num instructions producing a value
system.cpu.iew.wb_consumers                  95734586                       # num instructions consuming a value
system.cpu.iew.wb_rate                       1.476619                       # insts written-back per cycle
system.cpu.iew.wb_fanout                     0.677525                       # average fanout of values written-back
system.cpu.commit.commitSquashedInsts         9990899                       # The number of squashed insts skipped by commit
system.cpu.commit.commitNonSpecStalls              35                       # The number of times commit has been forced to stall to communicate backwards
system.cpu.commit.branchMispredicts            611821                       # The number of times a branch was mispredicted
system.cpu.commit.committed_per_cycle::samples     57074933                       # Number of insts commited each cycle
system.cpu.commit.committed_per_cycle::mean     1.428583                       # Number of insts commited each cycle
system.cpu.commit.committed_per_cycle::stdev     0.839670                       # Number of insts commited each cycle
system.cpu.commit.committed_per_cycle::underflows            0      0.00%      0.00% # Number of insts commited each cycle
system.cpu.commit.committed_per_cycle::0     13131382     23.01%     23.01% # Number of insts commited each cycle
system.cpu.commit.committed_per_cycle::1      6350821     11.13%     34.13% # Number of insts commited each cycle
system.cpu.commit.committed_per_cycle::2     37592730     65.87%    100.00% # Number of insts commited each cycle
system.cpu.commit.committed_per_cycle::overflows            0      0.00%    100.00% # Number of insts commited each cycle
system.cpu.commit.committed_per_cycle::min_value            0                       # Number of insts commited each cycle
system.cpu.commit.committed_per_cycle::max_value            2                       # Number of insts commited each cycle
system.cpu.commit.committed_per_cycle::total     57074933                       # Number of insts commited each cycle
system.cpu.commit.committedInsts             43074787                       # Number of instructions committed
system.cpu.commit.committedOps               81536281                       # Number of ops (including micro ops) committed
system.cpu.commit.swp_count                         0                       # Number of s/w prefetches committed
system.cpu.commit.refs                       23029866                       # Number of memory references committed
system.cpu.commit.loads                      15913243                       # Number of loads committed
system.cpu.commit.membars                           0                       # Number of memory barriers committed
system.cpu.commit.branches                    9079688                       # Number of branches committed
system.cpu.commit.vec_insts                         0                       # Number of committed Vector instructions.
system.cpu.commit.fp_insts                      66349                       # Number of committed floating point instructions.
system.cpu.commit.int_insts                  81474926                       # Number of committed integer instructions.
system.cpu.commit.function_calls              1471405                       # Number of function calls committed.
system.cpu.commit.op_class_0::No_OpClass        14182      0.02%      0.02% # Class of committed instruction
system.cpu.commit.op_class_0::IntAlu         58441489     71.68%     71.69% # Class of committed instruction
system.cpu.commit.op_class_0::IntMult            1394      0.00%     71.69% # Class of committed instruction
system.cpu.commit.op_class_0::IntDiv               21      0.00%     71.69% # Class of committed instruction
system.cpu.commit.op_class_0::FloatAdd           1504      0.00%     71.70% # Class of committed instruction
system.cpu.commit.op_class_0::FloatCmp              0      0.00%     71.70% # Class of committed instruction
system.cpu.commit.op_class_0::FloatCvt              0      0.00%     71.70% # Class of committed instruction
system.cpu.commit.op_class_0::FloatMult             0      0.00%     71.70% # Class of committed instruction
system.cpu.commit.op_class_0::FloatMultAcc            0      0.00%     71.70% # Class of committed instruction
system.cpu.commit.op_class_0::FloatDiv              0      0.00%     71.70% # Class of committed instruction
system.cpu.commit.op_class_0::FloatMisc             0      0.00%     71.70% # Class of committed instruction
system.cpu.commit.op_class_0::FloatSqrt             0      0.00%     71.70% # Class of committed instruction
system.cpu.commit.op_class_0::SimdAdd            4168      0.01%     71.70% # Class of committed instruction
system.cpu.commit.op_class_0::SimdAddAcc            0      0.00%     71.70% # Class of committed instruction
system.cpu.commit.op_class_0::SimdAlu           11647      0.01%     71.72% # Class of committed instruction
system.cpu.commit.op_class_0::SimdCmp               0      0.00%     71.72% # Class of committed instruction
system.cpu.commit.op_class_0::SimdCvt           13884      0.02%     71.73% # Class of committed instruction
system.cpu.commit.op_class_0::SimdMisc          17265      0.02%     71.75% # Class of committed instruction
system.cpu.commit.op_class_0::SimdMult              0      0.00%     71.75% # Class of committed instruction
system.cpu.commit.op_class_0::SimdMultAcc            0      0.00%     71.75% # Class of committed instruction
system.cpu.commit.op_class_0::SimdShift           861      0.00%     71.76% # Class of committed instruction
system.cpu.commit.op_class_0::SimdShiftAcc            0      0.00%     71.76% # Class of committed instruction
system.cpu.commit.op_class_0::SimdSqrt              0      0.00%     71.76% # Class of committed instruction
system.cpu.commit.op_class_0::SimdFloatAdd            0      0.00%     71.76% # Class of committed instruction
system.cpu.commit.op_class_0::SimdFloatAlu            0      0.00%     71.76% # Class of committed instruction
system.cpu.commit.op_class_0::SimdFloatCmp            0      0.00%     71.76% # Class of committed instruction
system.cpu.commit.op_class_0::SimdFloatCvt            0      0.00%     71.76% # Class of committed instruction
system.cpu.commit.op_class_0::SimdFloatDiv            0      0.00%     71.76% # Class of committed instruction
system.cpu.commit.op_class_0::SimdFloatMisc            0      0.00%     71.76% # Class of committed instruction
system.cpu.commit.op_class_0::SimdFloatMult            0      0.00%     71.76% # Class of committed instruction
system.cpu.commit.op_class_0::SimdFloatMultAcc            0      0.00%     71.76% # Class of committed instruction
system.cpu.commit.op_class_0::SimdFloatSqrt            0      0.00%     71.76% # Class of committed instruction
system.cpu.commit.op_class_0::SimdAes               0      0.00%     71.76% # Class of committed instruction
system.cpu.commit.op_class_0::SimdAesMix            0      0.00%     71.76% # Class of committed instruction
system.cpu.commit.op_class_0::SimdSha1Hash            0      0.00%     71.76% # Class of committed instruction
system.cpu.commit.op_class_0::SimdSha1Hash2            0      0.00%     71.76% # Class of committed instruction
system.cpu.commit.op_class_0::SimdSha256Hash            0      0.00%     71.76% # Class of committed instruction
system.cpu.commit.op_class_0::SimdSha256Hash2            0      0.00%     71.76% # Class of committed instruction
system.cpu.commit.op_class_0::SimdShaSigma2            0      0.00%     71.76% # Class of committed instruction
system.cpu.commit.op_class_0::SimdShaSigma3            0      0.00%     71.76% # Class of committed instruction
system.cpu.commit.op_class_0::MemRead        15901824     19.50%     91.26% # Class of committed instruction
system.cpu.commit.op_class_0::MemWrite        7115784      8.73%     99.98% # Class of committed instruction
system.cpu.commit.op_class_0::FloatMemRead        11419      0.01%    100.00% # Class of committed instruction
system.cpu.commit.op_class_0::FloatMemWrite          839      0.00%    100.00% # Class of committed instruction
system.cpu.commit.op_class_0::IprAccess             0      0.00%    100.00% # Class of committed instruction
system.cpu.commit.op_class_0::InstPrefetch            0      0.00%    100.00% # Class of committed instruction
system.cpu.commit.op_class_0::total          81536281                       # Class of committed instruction
system.cpu.commit.bw_lim_events              37592730                       # number cycles where commit BW limit reached
system.cpu.rob.rob_reads                    111009383                       # The number of ROB reads
system.cpu.rob.rob_writes                   184042371                       # The number of ROB writes
system.cpu.timesIdled                             485                       # Number of times that the entire CPU went into an idle state and unscheduled itself
system.cpu.idleCycles                           41281                       # Total number of cycles that the CPU has spent unscheduled due to idling
system.cpu.committedInsts                    43074787                       # Number of Instructions Simulated
system.cpu.committedOps                      81536281                       # Number of Ops (including micro ops) Simulated
system.cpu.cpi                               1.348894                       # CPI: Cycles Per Instruction
system.cpu.cpi_total                         1.348894                       # CPI: Total CPI of All Threads
system.cpu.ipc                               0.741348                       # IPC: Instructions Per Cycle
system.cpu.ipc_total                         0.741348                       # IPC: Total IPC of All Threads
system.cpu.int_regfile_reads                131973734                       # number of integer regfile reads
system.cpu.int_regfile_writes                69214733                       # number of integer regfile writes
system.cpu.fp_regfile_reads                    161443                       # number of floating regfile reads
system.cpu.fp_regfile_writes                    63674                       # number of floating regfile writes
system.cpu.cc_regfile_reads                  33387783                       # number of cc regfile reads
system.cpu.cc_regfile_writes                 19597030                       # number of cc regfile writes
system.cpu.misc_regfile_reads                44672880                       # number of misc regfile reads
system.cpu.dcache.tags.pwrStateResidencyTicks::UNDEFINED  29051653000                       # Cumulative time (in ticks) in various power states
system.cpu.dcache.tags.tagsinuse           510.051119                       # Cycle average of tags in use
system.cpu.dcache.tags.total_refs            18692208                       # Total number of references to valid blocks.
system.cpu.dcache.tags.sampled_refs             48412                       # Sample count of references to valid blocks.
system.cpu.dcache.tags.avg_refs            386.106916                       # Average number of references to valid blocks.
system.cpu.dcache.tags.warmup_cycle            195500                       # Cycle when the warmup percentage was hit.
system.cpu.dcache.tags.occ_blocks::.cpu.data   510.051119                       # Average occupied blocks per requestor
system.cpu.dcache.tags.occ_percent::.cpu.data     0.996194                       # Average percentage of cache occupancy
system.cpu.dcache.tags.occ_percent::total     0.996194                       # Average percentage of cache occupancy
system.cpu.dcache.tags.occ_task_id_blocks::1024          512                       # Occupied blocks per task id
system.cpu.dcache.tags.age_task_id_blocks_1024::0           35                       # Occupied blocks per task id
system.cpu.dcache.tags.age_task_id_blocks_1024::1          439                       # Occupied blocks per task id
system.cpu.dcache.tags.age_task_id_blocks_1024::2           13                       # Occupied blocks per task id
system.cpu.dcache.tags.age_task_id_blocks_1024::4           25                       # Occupied blocks per task id
system.cpu.dcache.tags.occ_task_id_percent::1024            1                       # Percentage of cache occupancy per task id
system.cpu.dcache.tags.tag_accesses         149704548                       # Number of tag accesses
system.cpu.dcache.tags.data_accesses        149704548                       # Number of data accesses
system.cpu.dcache.pwrStateResidencyTicks::UNDEFINED  29051653000                       # Cumulative time (in ticks) in various power states
system.cpu.dcache.ReadReq_hits::.cpu.data     11558801                       # number of ReadReq hits
system.cpu.dcache.ReadReq_hits::total        11558801                       # number of ReadReq hits
system.cpu.dcache.WriteReq_hits::.cpu.data      7084968                       # number of WriteReq hits
system.cpu.dcache.WriteReq_hits::total        7084968                       # number of WriteReq hits
system.cpu.dcache.demand_hits::.cpu.data     18643769                       # number of demand (read+write) hits
system.cpu.dcache.demand_hits::total         18643769                       # number of demand (read+write) hits
system.cpu.dcache.overall_hits::.cpu.data     18643769                       # number of overall hits
system.cpu.dcache.overall_hits::total        18643769                       # number of overall hits
system.cpu.dcache.ReadReq_misses::.cpu.data        31572                       # number of ReadReq misses
system.cpu.dcache.ReadReq_misses::total         31572                       # number of ReadReq misses
system.cpu.dcache.WriteReq_misses::.cpu.data        31676                       # number of WriteReq misses
system.cpu.dcache.WriteReq_misses::total        31676                       # number of WriteReq misses
system.cpu.dcache.demand_misses::.cpu.data        63248                       # number of demand (read+write) misses
system.cpu.dcache.demand_misses::total          63248                       # number of demand (read+write) misses
system.cpu.dcache.overall_misses::.cpu.data        63248                       # number of overall misses
system.cpu.dcache.overall_misses::total         63248                       # number of overall misses
system.cpu.dcache.ReadReq_miss_latency::.cpu.data    405641000                       # number of ReadReq miss cycles
system.cpu.dcache.ReadReq_miss_latency::total    405641000                       # number of ReadReq miss cycles
system.cpu.dcache.WriteReq_miss_latency::.cpu.data   2133316500                       # number of WriteReq miss cycles
system.cpu.dcache.WriteReq_miss_latency::total   2133316500                       # number of WriteReq miss cycles
system.cpu.dcache.demand_miss_latency::.cpu.data   2538957500                       # number of demand (read+write) miss cycles
system.cpu.dcache.demand_miss_latency::total   2538957500                       # number of demand (read+write) miss cycles
system.cpu.dcache.overall_miss_latency::.cpu.data   2538957500                       # number of overall miss cycles
system.cpu.dcache.overall_miss_latency::total   2538957500                       # number of overall miss cycles
system.cpu.dcache.ReadReq_accesses::.cpu.data     11590373                       # number of ReadReq accesses(hits+misses)
system.cpu.dcache.ReadReq_accesses::total     11590373                       # number of ReadReq accesses(hits+misses)
system.cpu.dcache.WriteReq_accesses::.cpu.data      7116644                       # number of WriteReq accesses(hits+misses)
system.cpu.dcache.WriteReq_accesses::total      7116644                       # number of WriteReq accesses(hits+misses)
system.cpu.dcache.demand_accesses::.cpu.data     18707017                       # number of demand (read+write) accesses
system.cpu.dcache.demand_accesses::total     18707017                       # number of demand (read+write) accesses
system.cpu.dcache.overall_accesses::.cpu.data     18707017                       # number of overall (read+write) accesses
system.cpu.dcache.overall_accesses::total     18707017                       # number of overall (read+write) accesses
system.cpu.dcache.ReadReq_miss_rate::.cpu.data     0.002724                       # miss rate for ReadReq accesses
system.cpu.dcache.ReadReq_miss_rate::total     0.002724                       # miss rate for ReadReq accesses
system.cpu.dcache.WriteReq_miss_rate::.cpu.data     0.004451                       # miss rate for WriteReq accesses
system.cpu.dcache.WriteReq_miss_rate::total     0.004451                       # miss rate for WriteReq accesses
system.cpu.dcache.demand_miss_rate::.cpu.data     0.003381                       # miss rate for demand accesses
system.cpu.dcache.demand_miss_rate::total     0.003381                       # miss rate for demand accesses
system.cpu.dcache.overall_miss_rate::.cpu.data     0.003381                       # miss rate for overall accesses
system.cpu.dcache.overall_miss_rate::total     0.003381                       # miss rate for overall accesses
system.cpu.dcache.ReadReq_avg_miss_latency::.cpu.data 12848.124921                       # average ReadReq miss latency
system.cpu.dcache.ReadReq_avg_miss_latency::total 12848.124921                       # average ReadReq miss latency
system.cpu.dcache.WriteReq_avg_miss_latency::.cpu.data 67348.039525                       # average WriteReq miss latency
system.cpu.dcache.WriteReq_avg_miss_latency::total 67348.039525                       # average WriteReq miss latency
system.cpu.dcache.demand_avg_miss_latency::.cpu.data 40142.889894                       # average overall miss latency
[...]
system.l3cache.tags.occ_blocks::.cpu.inst   796.549525                       # Average occupied blocks per requestor
system.l3cache.tags.occ_blocks::.cpu.data 12570.558456                       # Average occupied blocks per requestor
system.l3cache.tags.occ_percent::.cpu.inst     0.012154                       # Average percentage of cache occupancy
system.l3cache.tags.occ_percent::.cpu.data     0.191811                       # Average percentage of cache occupancy
system.l3cache.tags.occ_percent::total       0.203966                       # Average percentage of cache occupancy
system.l3cache.tags.occ_task_id_blocks::1024        25615                       # Occupied blocks per task id
system.l3cache.tags.age_task_id_blocks_1024::0          138                       # Occupied blocks per task id
system.l3cache.tags.age_task_id_blocks_1024::1           48                       # Occupied blocks per task id
system.l3cache.tags.age_task_id_blocks_1024::2          763                       # Occupied blocks per task id
system.l3cache.tags.age_task_id_blocks_1024::3         7508                       # Occupied blocks per task id
system.l3cache.tags.age_task_id_blocks_1024::4        17158                       # Occupied blocks per task id
system.l3cache.tags.occ_task_id_percent::1024     0.390854                       # Percentage of cache occupancy per task id
system.l3cache.tags.tag_accesses               708303                       # Number of tag accesses
system.l3cache.tags.data_accesses              708303                       # Number of data accesses
system.l3cache.pwrStateResidencyTicks::UNDEFINED  29051653000                       # Cumulative time (in ticks) in various power states
system.l3cache.WritebackDirty_hits::.writebacks        16768                       # number of WritebackDirty hits
system.l3cache.WritebackDirty_hits::total        16768                       # number of WritebackDirty hits
system.l3cache.ReadExReq_hits::.cpu.data           11                       # number of ReadExReq hits
system.l3cache.ReadExReq_hits::total               11                       # number of ReadExReq hits
system.l3cache.ReadSharedReq_hits::.cpu.data          274                       # number of ReadSharedReq hits
system.l3cache.ReadSharedReq_hits::total          274                       # number of ReadSharedReq hits
system.l3cache.demand_hits::.cpu.data             285                       # number of demand (read+write) hits
system.l3cache.demand_hits::total                 285                       # number of demand (read+write) hits
system.l3cache.overall_hits::.cpu.data            285                       # number of overall hits
system.l3cache.overall_hits::total                285                       # number of overall hits
system.l3cache.ReadExReq_misses::.cpu.data        24518                       # number of ReadExReq misses
system.l3cache.ReadExReq_misses::total          24518                       # number of ReadExReq misses
system.l3cache.ReadSharedReq_misses::.cpu.inst          937                       # number of ReadSharedReq misses
system.l3cache.ReadSharedReq_misses::.cpu.data          160                       # number of ReadSharedReq misses
system.l3cache.ReadSharedReq_misses::total         1097                       # number of ReadSharedReq misses
system.l3cache.demand_misses::.cpu.inst           937                       # number of demand (read+write) misses
system.l3cache.demand_misses::.cpu.data         24678                       # number of demand (read+write) misses
system.l3cache.demand_misses::total             25615                       # number of demand (read+write) misses
system.l3cache.overall_misses::.cpu.inst          937                       # number of overall misses
system.l3cache.overall_misses::.cpu.data        24678                       # number of overall misses
system.l3cache.overall_misses::total            25615                       # number of overall misses
system.l3cache.ReadExReq_miss_latency::.cpu.data   1711544500                       # number of ReadExReq miss cycles
system.l3cache.ReadExReq_miss_latency::total   1711544500                       # number of ReadExReq miss cycles
system.l3cache.ReadSharedReq_miss_latency::.cpu.inst     71653000                       # number of ReadSharedReq miss cycles
system.l3cache.ReadSharedReq_miss_latency::.cpu.data     12779500                       # number of ReadSharedReq miss cycles
system.l3cache.ReadSharedReq_miss_latency::total     84432500                       # number of ReadSharedReq miss cycles
system.l3cache.demand_miss_latency::.cpu.inst     71653000                       # number of demand (read+write) miss cycles
system.l3cache.demand_miss_latency::.cpu.data   1724324000                       # number of demand (read+write) miss cycles
system.l3cache.demand_miss_latency::total   1795977000                       # number of demand (read+write) miss cycles
system.l3cache.overall_miss_latency::.cpu.inst     71653000                       # number of overall miss cycles
system.l3cache.overall_miss_latency::.cpu.data   1724324000                       # number of overall miss cycles
system.l3cache.overall_miss_latency::total   1795977000                       # number of overall miss cycles
system.l3cache.WritebackDirty_accesses::.writebacks        16768                       # number of WritebackDirty accesses(hits+misses)
system.l3cache.WritebackDirty_accesses::total        16768                       # number of WritebackDirty accesses(hits+misses)
system.l3cache.ReadExReq_accesses::.cpu.data        24529                       # number of ReadExReq accesses(hits+misses)
system.l3cache.ReadExReq_accesses::total        24529                       # number of ReadExReq accesses(hits+misses)
system.l3cache.ReadSharedReq_accesses::.cpu.inst          937                       # number of ReadSharedReq accesses(hits+misses)
system.l3cache.ReadSharedReq_accesses::.cpu.data          434                       # number of ReadSharedReq accesses(hits+misses)
system.l3cache.ReadSharedReq_accesses::total         1371                       # number of ReadSharedReq accesses(hits+misses)
system.l3cache.demand_accesses::.cpu.inst          937                       # number of demand (read+write) accesses
system.l3cache.demand_accesses::.cpu.data        24963                       # number of demand (read+write) accesses
system.l3cache.demand_accesses::total           25900                       # number of demand (read+write) accesses
system.l3cache.overall_accesses::.cpu.inst          937                       # number of overall (read+write) accesses
system.l3cache.overall_accesses::.cpu.data        24963                       # number of overall (read+write) accesses
system.l3cache.overall_accesses::total          25900                       # number of overall (read+write) accesses
system.l3cache.ReadExReq_miss_rate::.cpu.data     0.999552                       # miss rate for ReadExReq accesses
system.l3cache.ReadExReq_miss_rate::total     0.999552                       # miss rate for ReadExReq accesses
system.l3cache.ReadSharedReq_miss_rate::.cpu.inst            1                       # miss rate for ReadSharedReq accesses
system.l3cache.ReadSharedReq_miss_rate::.cpu.data     0.368664                       # miss rate for ReadSharedReq accesses
system.l3cache.ReadSharedReq_miss_rate::total     0.800146                       # miss rate for ReadSharedReq accesses
system.l3cache.demand_miss_rate::.cpu.inst            1                       # miss rate for demand accesses
system.l3cache.demand_miss_rate::.cpu.data     0.988583                       # miss rate for demand accesses
system.l3cache.demand_miss_rate::total       0.988996                       # miss rate for demand accesses
system.l3cache.overall_miss_rate::.cpu.inst            1                       # miss rate for overall accesses
system.l3cache.overall_miss_rate::.cpu.data     0.988583                       # miss rate for overall accesses
system.l3cache.overall_miss_rate::total      0.988996                       # miss rate for overall accesses
system.l3cache.ReadExReq_avg_miss_latency::.cpu.data 69807.671915                       # average ReadExReq miss latency
system.l3cache.ReadExReq_avg_miss_latency::total 69807.671915                       # average ReadExReq miss latency
system.l3cache.ReadSharedReq_avg_miss_latency::.cpu.inst 76470.651014                       # average ReadSharedReq miss latency
system.l3cache.ReadSharedReq_avg_miss_latency::.cpu.data 79871.875000                       # average ReadSharedReq miss latency
system.l3cache.ReadSharedReq_avg_miss_latency::total 76966.727438                       # average ReadSharedReq miss latency
system.l3cache.demand_avg_miss_latency::.cpu.inst 76470.651014                       # average overall miss latency
system.l3cache.demand_avg_miss_latency::.cpu.data 69872.923251                       # average overall miss latency
system.l3cache.demand_avg_miss_latency::total 70114.268983                       # average overall miss latency
system.l3cache.overall_avg_miss_latency::.cpu.inst 76470.651014                       # average overall miss latency
system.l3cache.overall_avg_miss_latency::.cpu.data 69872.923251                       # average overall miss latency
system.l3cache.overall_avg_miss_latency::total 70114.268983                       # average overall miss latency
system.l3cache.blocked_cycles::no_mshrs             0                       # number of cycles access was blocked
system.l3cache.blocked_cycles::no_targets            0                       # number of cycles access was blocked
system.l3cache.blocked::no_mshrs                    0                       # number of cycles access was blocked
system.l3cache.blocked::no_targets                  0                       # number of cycles access was blocked
system.l3cache.avg_blocked_cycles::no_mshrs          nan                       # average number of cycles each access was blocked
system.l3cache.avg_blocked_cycles::no_targets          nan                       # average number of cycles each access was blocked
system.l3cache.ReadExReq_mshr_misses::.cpu.data        24518                       # number of ReadExReq MSHR misses
system.l3cache.ReadExReq_mshr_misses::total        24518                       # number of ReadExReq MSHR misses
system.l3cache.ReadSharedReq_mshr_misses::.cpu.inst          937                       # number of ReadSharedReq MSHR misses
system.l3cache.ReadSharedReq_mshr_misses::.cpu.data          160                       # number of ReadSharedReq MSHR misses
system.l3cache.ReadSharedReq_mshr_misses::total         1097                       # number of ReadSharedReq MSHR misses
system.l3cache.demand_mshr_misses::.cpu.inst          937                       # number of demand (read+write) MSHR misses
system.l3cache.demand_mshr_misses::.cpu.data        24678                       # number of demand (read+write) MSHR misses
system.l3cache.demand_mshr_misses::total        25615                       # number of demand (read+write) MSHR misses
system.l3cache.overall_mshr_misses::.cpu.inst          937                       # number of overall MSHR misses
system.l3cache.overall_mshr_misses::.cpu.data        24678                       # number of overall MSHR misses
system.l3cache.overall_mshr_misses::total        25615                       # number of overall MSHR misses
system.l3cache.ReadExReq_mshr_miss_latency::.cpu.data   1662508500                       # number of ReadExReq MSHR miss cycles
system.l3cache.ReadExReq_mshr_miss_latency::total   1662508500                       # number of ReadExReq MSHR miss cycles
system.l3cache.ReadSharedReq_mshr_miss_latency::.cpu.inst     69779000                       # number of ReadSharedReq MSHR miss cycles
system.l3cache.ReadSharedReq_mshr_miss_latency::.cpu.data     12459500                       # number of ReadSharedReq MSHR miss cycles
system.l3cache.ReadSharedReq_mshr_miss_latency::total     82238500                       # number of ReadSharedReq MSHR miss cycles
system.l3cache.demand_mshr_miss_latency::.cpu.inst     69779000                       # number of demand (read+write) MSHR miss cycles
system.l3cache.demand_mshr_miss_latency::.cpu.data   1674968000                       # number of demand (read+write) MSHR miss cycles
system.l3cache.demand_mshr_miss_latency::total   1744747000                       # number of demand (read+write) MSHR miss cycles
system.l3cache.overall_mshr_miss_latency::.cpu.inst     69779000                       # number of overall MSHR miss cycles
system.l3cache.overall_mshr_miss_latency::.cpu.data   1674968000                       # number of overall MSHR miss cycles
system.l3cache.overall_mshr_miss_latency::total   1744747000                       # number of overall MSHR miss cycles
system.l3cache.ReadExReq_mshr_miss_rate::.cpu.data     0.999552                       # mshr miss rate for ReadExReq accesses
system.l3cache.ReadExReq_mshr_miss_rate::total     0.999552                       # mshr miss rate for ReadExReq accesses
system.l3cache.ReadSharedReq_mshr_miss_rate::.cpu.inst            1                       # mshr miss rate for ReadSharedReq accesses
system.l3cache.ReadSharedReq_mshr_miss_rate::.cpu.data     0.368664                       # mshr miss rate for ReadSharedReq accesses
system.l3cache.ReadSharedReq_mshr_miss_rate::total     0.800146                       # mshr miss rate for ReadSharedReq accesses
system.l3cache.demand_mshr_miss_rate::.cpu.inst            1                       # mshr miss rate for demand accesses
system.l3cache.demand_mshr_miss_rate::.cpu.data     0.988583                       # mshr miss rate for demand accesses
system.l3cache.demand_mshr_miss_rate::total     0.988996                       # mshr miss rate for demand accesses
system.l3cache.overall_mshr_miss_rate::.cpu.inst            1                       # mshr miss rate for overall accesses
system.l3cache.overall_mshr_miss_rate::.cpu.data     0.988583                       # mshr miss rate for overall accesses
system.l3cache.overall_mshr_miss_rate::total     0.988996                       # mshr miss rate for overall accesses
system.l3cache.ReadExReq_avg_mshr_miss_latency::.cpu.data 67807.671915                       # average ReadExReq mshr miss latency
system.l3cache.ReadExReq_avg_mshr_miss_latency::total 67807.671915                       # average ReadExReq mshr miss latency
system.l3cache.ReadSharedReq_avg_mshr_miss_latency::.cpu.inst 74470.651014                       # average ReadSharedReq mshr miss latency
system.l3cache.ReadSharedReq_avg_mshr_miss_latency::.cpu.data 77871.875000                       # average ReadSharedReq mshr miss latency
system.l3cache.ReadSharedReq_avg_mshr_miss_latency::total 74966.727438                       # average ReadSharedReq mshr miss latency
system.l3cache.demand_avg_mshr_miss_latency::.cpu.inst 74470.651014                       # average overall mshr miss latency
system.l3cache.demand_avg_mshr_miss_latency::.cpu.data 67872.923251                       # average overall mshr miss latency
system.l3cache.demand_avg_mshr_miss_latency::total 68114.268983                       # average overall mshr miss latency
system.l3cache.overall_avg_mshr_miss_latency::.cpu.inst 74470.651014                       # average overall mshr miss latency
system.l3cache.overall_avg_mshr_miss_latency::.cpu.data 67872.923251                       # average overall mshr miss latency
system.l3cache.overall_avg_mshr_miss_latency::total 68114.268983                       # average overall mshr miss latency
system.l3cache.replacements                         0                       # number of replacements
system.membus.snoop_filter.tot_requests         25615                       # Total number of requests made to the snoop filter.
system.membus.snoop_filter.hit_single_requests            0                       # Number of requests hitting in the snoop filter with a single holder of the requested data.
system.membus.snoop_filter.hit_multi_requests            0                       # Number of requests hitting in the snoop filter with multiple (>1) holders of the requested data.
system.membus.snoop_filter.tot_snoops               0                       # Total number of snoops made to the snoop filter.
system.membus.snoop_filter.hit_single_snoops            0                       # Number of snoops hitting in the snoop filter with a single holder of the requested data.
system.membus.snoop_filter.hit_multi_snoops            0                       # Number of snoops hitting in the snoop filter with multiple (>1) holders of the requested data.
system.membus.pwrStateResidencyTicks::UNDEFINED  29051653000                       # Cumulative time (in ticks) in various power states
system.membus.trans_dist::ReadResp               1097                       # Transaction distribution
system.membus.trans_dist::ReadExReq             24518                       # Transaction distribution
system.membus.trans_dist::ReadExResp            24518                       # Transaction distribution
system.membus.trans_dist::ReadSharedReq          1097                       # Transaction distribution
system.membus.pkt_count_system.l3cache.mem_side::system.mem_ctrl.port        51230                       # Packet count per connected master and slave (bytes)
system.membus.pkt_count_system.l3cache.mem_side::total        51230                       # Packet count per connected master and slave (bytes)
system.membus.pkt_count::total                  51230                       # Packet count per connected master and slave (bytes)
system.membus.pkt_size_system.l3cache.mem_side::system.mem_ctrl.port      1639360                       # Cumulative packet size per connected master and slave (bytes)
system.membus.pkt_size_system.l3cache.mem_side::total      1639360                       # Cumulative packet size per connected master and slave (bytes)
system.membus.pkt_size::total                 1639360                       # Cumulative packet size per connected master and slave (bytes)
system.membus.snoops                                0                       # Total snoops (count)
system.membus.snoopTraffic                          0                       # Total snoop traffic (bytes)
system.membus.snoop_fanout::samples             25615                       # Request fanout histogram
system.membus.snoop_fanout::mean                    0                       # Request fanout histogram
system.membus.snoop_fanout::stdev                   0                       # Request fanout histogram
system.membus.snoop_fanout::underflows              0      0.00%      0.00% # Request fanout histogram
system.membus.snoop_fanout::0                   25615    100.00%    100.00% # Request fanout histogram
system.membus.snoop_fanout::1                       0      0.00%    100.00% # Request fanout histogram
system.membus.snoop_fanout::overflows               0      0.00%    100.00% # Request fanout histogram
system.membus.snoop_fanout::min_value               0                       # Request fanout histogram
system.membus.snoop_fanout::max_value               0                       # Request fanout histogram
system.membus.snoop_fanout::total               25615                       # Request fanout histogram
system.membus.reqLayer0.occupancy            12807500                       # Layer occupancy (ticks)
system.membus.reqLayer0.utilization               0.0                       # Layer utilization (%)
system.membus.respLayer0.occupancy           69500250                       # Layer occupancy (ticks)
system.membus.respLayer0.utilization              0.2                       # Layer utilization (%)

---------- End Simulation Statistics   ----------
