
---------- Begin Simulation Statistics ----------
sim_seconds                                  0.005315                       # Number of seconds simulated
sim_ticks                                  5315159000                       # Number of ticks simulated
final_tick                                 5315159000                       # Number of ticks from beginning of simulation (restored from checkpoints and never reset)
sim_freq                                 1000000000000                       # Frequency of simulated ticks
host_inst_rate                                  86983                       # Simulator instruction rate (inst/s)
host_op_rate                                   121808                       # Simulator op (including micro ops) rate (op/s)
host_tick_rate                               46678973                       # Simulator tick rate (ticks/s)
host_mem_usage                                 671048                       # Number of bytes of host memory used
host_seconds                                   113.87                       # Real time elapsed on the host
sim_insts                                     9904383                       # Number of instructions simulated
sim_ops                                      13869776                       # Number of ops (including micro ops) simulated
system.clk_domain.voltage_domain.voltage            1                       # Voltage in Volts
system.clk_domain.clock                           500                       # Clock period in ticks
system.mem_ctrl.pwrStateResidencyTicks::UNDEFINED   5315159000                       # Cumulative time (in ticks) in various power states
system.mem_ctrl.bytes_read::.cpu.inst           30784                       # Number of bytes read from this memory
system.mem_ctrl.bytes_read::.cpu.data           54272                       # Number of bytes read from this memory
system.mem_ctrl.bytes_read::total               85056                       # Number of bytes read from this memory
system.mem_ctrl.bytes_inst_read::.cpu.inst        30784                       # Number of instructions bytes read from this memory
system.mem_ctrl.bytes_inst_read::total          30784                       # Number of instructions bytes read from this memory
system.mem_ctrl.num_reads::.cpu.inst              481                       # Number of read requests responded to by this memory
system.mem_ctrl.num_reads::.cpu.data              848                       # Number of read requests responded to by this memory
system.mem_ctrl.num_reads::total                 1329                       # Number of read requests responded to by this memory
system.mem_ctrl.bw_read::.cpu.inst            5791736                       # Total read bandwidth from this memory (bytes/s)
system.mem_ctrl.bw_read::.cpu.data           10210795                       # Total read bandwidth from this memory (bytes/s)
system.mem_ctrl.bw_read::total               16002532                       # Total read bandwidth from this memory (bytes/s)
system.mem_ctrl.bw_inst_read::.cpu.inst       5791736                       # Instruction read bandwidth from this memory (bytes/s)
system.mem_ctrl.bw_inst_read::total           5791736                       # Instruction read bandwidth from this memory (bytes/s)
system.mem_ctrl.bw_total::.cpu.inst           5791736                       # Total bandwidth to/from this memory (bytes/s)
system.mem_ctrl.bw_total::.cpu.data          10210795                       # Total bandwidth to/from this memory (bytes/s)
system.mem_ctrl.bw_total::total              16002532                       # Total bandwidth to/from this memory (bytes/s)
system.mem_ctrl.avgPriority_.cpu.inst::samples       482.00                       # Average QoS priority value for accepted requests
system.mem_ctrl.avgPriority_.cpu.data::samples       848.00                       # Average QoS priority value for accepted requests
system.mem_ctrl.priorityMinLatency       0.000000018750                       # per QoS priority minimum request to response latency (s)
system.mem_ctrl.priorityMaxLatency       0.000001099750                       # per QoS priority maximum request to response latency (s)
system.mem_ctrl.numReadWriteTurnArounds             0                       # Number of turnarounds from READ to WRITE
system.mem_ctrl.numWriteReadTurnArounds             0                       # Number of turnarounds from WRITE to READ
system.mem_ctrl.numStayReadState                 2701                       # Number of times bus staying in READ state
system.mem_ctrl.numStayWriteState                   0                       # Number of times bus staying in WRITE state
system.mem_ctrl.readReqs                         1330                       # Number of read requests accepted
system.mem_ctrl.writeReqs                           0                       # Number of write requests accepted
system.mem_ctrl.readBursts                       1330                       # Number of DRAM read bursts, including those serviced by the write queue
system.mem_ctrl.writeBursts                         0                       # Number of DRAM write bursts, including those merged in the write queue
system.mem_ctrl.bytesReadDRAM                   85120                       # Total number of bytes read from DRAM
system.mem_ctrl.bytesReadWrQ                        0                       # Total number of bytes read from write queue
system.mem_ctrl.bytesWritten                        0                       # Total number of bytes written to DRAM
system.mem_ctrl.bytesReadSys                    85120                       # Total read bytes from the system interface side
system.mem_ctrl.bytesWrittenSys                     0                       # Total written bytes from the system interface side
system.mem_ctrl.servicedByWrQ                       0                       # Number of DRAM read bursts serviced by the write queue
system.mem_ctrl.mergedWrBursts                      0                       # Number of DRAM write bursts merged with an existing one
system.mem_ctrl.neitherReadNorWriteReqs             0                       # Number of requests that are neither read nor write
system.mem_ctrl.perBankRdBursts::0                186                       # Per bank write bursts
system.mem_ctrl.perBankRdBursts::1                 85                       # Per bank write bursts
system.mem_ctrl.perBankRdBursts::2                160                       # Per bank write bursts
system.mem_ctrl.perBankRdBursts::3                134                       # Per bank write bursts
system.mem_ctrl.perBankRdBursts::4                137                       # Per bank write bursts
system.mem_ctrl.perBankRdBursts::5                133                       # Per bank write bursts
system.mem_ctrl.perBankRdBursts::6                100                       # Per bank write bursts
system.mem_ctrl.perBankRdBursts::7                 59                       # Per bank write bursts
system.mem_ctrl.perBankRdBursts::8                  0                       # Per bank write bursts
system.mem_ctrl.perBankRdBursts::9                 10                       # Per bank write bursts
system.mem_ctrl.perBankRdBursts::10                10                       # Per bank write bursts
system.mem_ctrl.perBankRdBursts::11                30                       # Per bank write bursts
system.mem_ctrl.perBankRdBursts::12                39                       # Per bank write bursts
system.mem_ctrl.perBankRdBursts::13               101                       # Per bank write bursts
system.mem_ctrl.perBankRdBursts::14               101                       # Per bank write bursts
system.mem_ctrl.perBankRdBursts::15                45                       # Per bank write bursts
system.mem_ctrl.perBankWrBursts::0                  0                       # Per bank write bursts
system.mem_ctrl.perBankWrBursts::1                  0                       # Per bank write bursts
system.mem_ctrl.perBankWrBursts::2                  0                       # Per bank write bursts
system.mem_ctrl.perBankWrBursts::3                  0                       # Per bank write bursts
system.mem_ctrl.perBankWrBursts::4                  0                       # Per bank write bursts
system.mem_ctrl.perBankWrBursts::5                  0                       # Per bank write bursts
system.mem_ctrl.perBankWrBursts::6                  0                       # Per bank write bursts
system.mem_ctrl.perBankWrBursts::7                  0                       # Per bank write bursts
system.mem_ctrl.perBankWrBursts::8                  0                       # Per bank write bursts
system.mem_ctrl.perBankWrBursts::9                  0                       # Per bank write bursts
system.mem_ctrl.perBankWrBursts::10                 0                       # Per bank write bursts
system.mem_ctrl.perBankWrBursts::11                 0                       # Per bank write bursts
system.mem_ctrl.perBankWrBursts::12                 0                       # Per bank write bursts
system.mem_ctrl.perBankWrBursts::13                 0                       # Per bank write bursts
system.mem_ctrl.perBankWrBursts::14                 0                       # Per bank write bursts
system.mem_ctrl.perBankWrBursts::15                 0                       # Per bank write bursts
system.mem_ctrl.numRdRetry                          0                       # Number of times read queue was full causing retry
system.mem_ctrl.numWrRetry                          0                       # Number of times write queue was full causing retry
system.mem_ctrl.totGap                     5315119500                       # Total gap between requests
system.mem_ctrl.readPktSize::0                      0                       # Read request sizes (log2)
system.mem_ctrl.readPktSize::1                      0                       # Read request sizes (log2)
system.mem_ctrl.readPktSize::2                      0                       # Read request sizes (log2)
system.mem_ctrl.readPktSize::3                      0                       # Read request sizes (log2)
system.mem_ctrl.readPktSize::4                      0                       # Read request sizes (log2)
system.mem_ctrl.readPktSize::5                      0                       # Read request sizes (log2)
system.mem_ctrl.readPktSize::6                   1330                       # Read request sizes (log2)
system.mem_ctrl.writePktSize::0                     0                       # Write request sizes (log2)
system.mem_ctrl.writePktSize::1                     0                       # Write request sizes (log2)
system.mem_ctrl.writePktSize::2                     0                       # Write request sizes (log2)
system.mem_ctrl.writePktSize::3                     0                       # Write request sizes (log2)
system.mem_ctrl.writePktSize::4                     0                       # Write request sizes (log2)
system.mem_ctrl.writePktSize::5                     0                       # Write request sizes (log2)
system.mem_ctrl.writePktSize::6                     0                       # Write request sizes (log2)
system.mem_ctrl.rdQLenPdf::0                     1061                       # What read queue length does an incoming req see
system.mem_ctrl.rdQLenPdf::1                      198                       # What read queue length does an incoming req see
system.mem_ctrl.rdQLenPdf::2                       61                       # What read queue length does an incoming req see
system.mem_ctrl.rdQLenPdf::3                        8                       # What read queue length does an incoming req see
system.mem_ctrl.rdQLenPdf::4                        2                       # What read queue length does an incoming req see
system.mem_ctrl.rdQLenPdf::5                        0                       # What read queue length does an incoming req see
system.mem_ctrl.rdQLenPdf::6                        0                       # What read queue length does an incoming req see
system.mem_ctrl.rdQLenPdf::7                        0                       # What read queue length does an incoming req see
system.mem_ctrl.rdQLenPdf::8                        0                       # What read queue length does an incoming req see
system.mem_ctrl.rdQLenPdf::9                        0                       # What read queue length does an incoming req see
system.mem_ctrl.rdQLenPdf::10                       0                       # What read queue length does an incoming req see
system.mem_ctrl.rdQLenPdf::11                       0                       # What read queue length does an incoming req see
system.mem_ctrl.rdQLenPdf::12                       0                       # What read queue length does an incoming req see
system.mem_ctrl.rdQLenPdf::13                       0                       # What read queue length does an incoming req see
system.mem_ctrl.rdQLenPdf::14                       0                       # What read queue length does an incoming req see
system.mem_ctrl.rdQLenPdf::15                       0                       # What read queue length does an incoming req see
system.mem_ctrl.rdQLenPdf::16                       0                       # What read queue length does an incoming req see
system.mem_ctrl.rdQLenPdf::17                       0                       # What read queue length does an incoming req see
system.mem_ctrl.rdQLenPdf::18                       0                       # What read queue length does an incoming req see
system.mem_ctrl.rdQLenPdf::19                       0                       # What read queue length does an incoming req see
system.mem_ctrl.rdQLenPdf::20                       0                       # What read queue length does an incoming req see
system.mem_ctrl.rdQLenPdf::21                       0                       # What read queue length does an incoming req see
system.mem_ctrl.rdQLenPdf::22                       0                       # What read queue length does an incoming req see
system.mem_ctrl.rdQLenPdf::23                       0                       # What read queue length does an incoming req see
system.mem_ctrl.rdQLenPdf::24                       0                       # What read queue length does an incoming req see
system.mem_ctrl.rdQLenPdf::25                       0                       # What read queue length does an incoming req see
system.mem_ctrl.rdQLenPdf::26                       0                       # What read queue length does an incoming req see
system.mem_ctrl.rdQLenPdf::27                       0                       # What read queue length does an incoming req see
system.mem_ctrl.rdQLenPdf::28                       0                       # What read queue length does an incoming req see
system.mem_ctrl.rdQLenPdf::29                       0                       # What read queue length does an incoming req see
system.mem_ctrl.rdQLenPdf::30                       0                       # What read queue length does an incoming req see
system.mem_ctrl.rdQLenPdf::31                       0                       # What read queue length does an incoming req see
system.mem_ctrl.wrQLenPdf::0                        0                       # What write queue length does an incoming req see
system.mem_ctrl.wrQLenPdf::1                        0                       # What write queue length does an incoming req see
system.mem_ctrl.wrQLenPdf::2                        0                       # What write queue length does an incoming req see
system.mem_ctrl.wrQLenPdf::3                        0                       # What write queue length does an incoming req see
system.mem_ctrl.wrQLenPdf::4                        0                       # What write queue length does an incoming req see
system.mem_ctrl.wrQLenPdf::5                        0                       # What write queue length does an incoming req see
system.mem_ctrl.wrQLenPdf::6                        0                       # What write queue length does an incoming req see
system.mem_ctrl.wrQLenPdf::7                        0                       # What write queue length does an incoming req see
system.mem_ctrl.wrQLenPdf::8                        0                       # What write queue length does an incoming req see
system.mem_ctrl.wrQLenPdf::9                        0                       # What write queue length does an incoming req see
system.mem_ctrl.wrQLenPdf::10                       0                       # What write queue length does an incoming req see
system.mem_ctrl.wrQLenPdf::11                       0                       # What write queue length does an incoming req see
system.mem_ctrl.wrQLenPdf::12                       0                       # What write queue length does an incoming req see
system.mem_ctrl.wrQLenPdf::13                       0                       # What write queue length does an incoming req see
system.mem_ctrl.wrQLenPdf::14                       0                       # What write queue length does an incoming req see
system.mem_ctrl.wrQLenPdf::15                       0                       # What write queue length does an incoming req see
system.mem_ctrl.wrQLenPdf::16                       0                       # What write queue length does an incoming req see
system.mem_ctrl.wrQLenPdf::17                       0                       # What write queue length does an incoming req see
system.mem_ctrl.wrQLenPdf::18                       0                       # What write queue length does an incoming req see
system.mem_ctrl.wrQLenPdf::19                       0                       # What write queue length does an incoming req see
system.mem_ctrl.wrQLenPdf::20                       0                       # What write queue length does an incoming req see
system.mem_ctrl.wrQLenPdf::21                       0                       # What write queue length does an incoming req see
system.mem_ctrl.wrQLenPdf::22                       0                       # What write queue length does an incoming req see
system.mem_ctrl.wrQLenPdf::23                       0                       # What write queue length does an incoming req see
system.mem_ctrl.wrQLenPdf::24                       0                       # What write queue length does an incoming req see
system.mem_ctrl.wrQLenPdf::25                       0                       # What write queue length does an incoming req see
system.mem_ctrl.wrQLenPdf::26                       0                       # What write queue length does an incoming req see
system.mem_ctrl.wrQLenPdf::27                       0                       # What write queue length does an incoming req see
system.mem_ctrl.wrQLenPdf::28                       0                       # What write queue length does an incoming req see
system.mem_ctrl.wrQLenPdf::29                       0                       # What write queue length does an incoming req see
system.mem_ctrl.wrQLenPdf::30                       0                       # What write queue length does an incoming req see
system.mem_ctrl.wrQLenPdf::31                       0                       # What write queue length does an incoming req see
system.mem_ctrl.wrQLenPdf::32                       0                       # What write queue length does an incoming req see
system.mem_ctrl.wrQLenPdf::33                       0                       # What write queue length does an incoming req see
system.mem_ctrl.wrQLenPdf::34                       0                       # What write queue length does an incoming req see
system.mem_ctrl.wrQLenPdf::35                       0                       # What write queue length does an incoming req see
system.mem_ctrl.wrQLenPdf::36                       0                       # What write queue length does an incoming req see
system.mem_ctrl.wrQLenPdf::37                       0                       # What write queue length does an incoming req see
system.mem_ctrl.wrQLenPdf::38                       0                       # What write queue length does an incoming req see
system.mem_ctrl.wrQLenPdf::39                       0                       # What write queue length does an incoming req see
system.mem_ctrl.wrQLenPdf::40                       0                       # What write queue length does an incoming req see
system.mem_ctrl.wrQLenPdf::41                       0                       # What write queue length does an incoming req see
system.mem_ctrl.wrQLenPdf::42                       0                       # What write queue length does an incoming req see
system.mem_ctrl.wrQLenPdf::43                       0                       # What write queue length does an incoming req see
system.mem_ctrl.wrQLenPdf::44                       0                       # What write queue length does an incoming req see
system.mem_ctrl.wrQLenPdf::45                       0                       # What write queue length does an incoming req see
system.mem_ctrl.wrQLenPdf::46                       0                       # What write queue length does an incoming req see
system.mem_ctrl.wrQLenPdf::47                       0                       # What write queue length does an incoming req see
system.mem_ctrl.wrQLenPdf::48                       0                       # What write queue length does an incoming req see
system.mem_ctrl.wrQLenPdf::49                       0                       # What write queue length does an incoming req see
system.mem_ctrl.wrQLenPdf::50                       0                       # What write queue length does an incoming req see
system.mem_ctrl.wrQLenPdf::51                       0                       # What write queue length does an incoming req see
system.mem_ctrl.wrQLenPdf::52                       0                       # What write queue length does an incoming req see
system.mem_ctrl.wrQLenPdf::53                       0                       # What write queue length does an incoming req see
system.mem_ctrl.wrQLenPdf::54                       0                       # What write queue length does an incoming req see
system.mem_ctrl.wrQLenPdf::55                       0                       # What write queue length does an incoming req see
system.mem_ctrl.wrQLenPdf::56                       0                       # What write queue length does an incoming req see
system.mem_ctrl.wrQLenPdf::57                       0                       # What write queue length does an incoming req see
system.mem_ctrl.wrQLenPdf::58                       0                       # What write queue length does an incoming req see
system.mem_ctrl.wrQLenPdf::59                       0                       # What write queue length does an incoming req see
system.mem_ctrl.wrQLenPdf::60                       0                       # What write queue length does an incoming req see
system.mem_ctrl.wrQLenPdf::61                       0                       # What write queue length does an incoming req see
system.mem_ctrl.wrQLenPdf::62                       0                       # What write queue length does an incoming req see
system.mem_ctrl.wrQLenPdf::63                       0                       # What write queue length does an incoming req see
system.mem_ctrl.bytesPerActivate::samples          216                       # Bytes accessed per row activation
system.mem_ctrl.bytesPerActivate::mean     387.259259                       # Bytes accessed per row activation
system.mem_ctrl.bytesPerActivate::gmean    241.455145                       # Bytes accessed per row activation
system.mem_ctrl.bytesPerActivate::stdev    329.255972                       # Bytes accessed per row activation
system.mem_ctrl.bytesPerActivate::0-127            61     28.24%     28.24% # Bytes accessed per row activation
system.mem_ctrl.bytesPerActivate::128-255           42     19.44%     47.69% # Bytes accessed per row activation
system.mem_ctrl.bytesPerActivate::256-383           20      9.26%     56.94% # Bytes accessed per row activation
system.mem_ctrl.bytesPerActivate::384-511           17      7.87%     64.81% # Bytes accessed per row activation
system.mem_ctrl.bytesPerActivate::512-639            6      2.78%     67.59% # Bytes accessed per row activation
system.mem_ctrl.bytesPerActivate::640-767            9      4.17%     71.76% # Bytes accessed per row activation
system.mem_ctrl.bytesPerActivate::768-895           47     21.76%     93.52% # Bytes accessed per row activation
system.mem_ctrl.bytesPerActivate::896-1023            2      0.93%     94.44% # Bytes accessed per row activation
system.mem_ctrl.bytesPerActivate::1024-1151           12      5.56%    100.00% # Bytes accessed per row activation
system.mem_ctrl.bytesPerActivate::total           216                       # Bytes accessed per row activation
system.mem_ctrl.masterReadBytes::.cpu.inst        30848                       # Per-master bytes read from memory
system.mem_ctrl.masterReadBytes::.cpu.data        54272                       # Per-master bytes read from memory
system.mem_ctrl.masterReadRate::.cpu.inst 5803777.459902892821                       # Per-master bytes read from memory rate (Bytes/sec)
system.mem_ctrl.masterReadRate::.cpu.data 10210795.199165254831                       # Per-master bytes read from memory rate (Bytes/sec)
system.mem_ctrl.masterReadAccesses::.cpu.inst          482                       # Per-master read serviced memory accesses
system.mem_ctrl.masterReadAccesses::.cpu.data          848                       # Per-master read serviced memory accesses
system.mem_ctrl.masterReadTotalLat::.cpu.inst     17918750                       # Per-master read total memory access latency
system.mem_ctrl.masterReadTotalLat::.cpu.data     30002750                       # Per-master read total memory access latency
system.mem_ctrl.masterReadAvgLat::.cpu.inst     37175.83                       # Per-master read average memory access latency
system.mem_ctrl.masterReadAvgLat::.cpu.data     35380.60                       # Per-master read average memory access latency
system.mem_ctrl.totQLat                      22984000                       # Total ticks spent queuing
system.mem_ctrl.totMemAccLat                 47921500                       # Total ticks spent from burst creation until serviced by the DRAM
system.mem_ctrl.totBusLat                     6650000                       # Total ticks spent in databus transfers
system.mem_ctrl.avgQLat                      17281.20                       # Average queueing delay per DRAM burst
system.mem_ctrl.avgBusLat                     5000.00                       # Average bus latency per DRAM burst
system.mem_ctrl.avgMemAccLat                 36031.20                       # Average memory access latency per DRAM burst
system.mem_ctrl.avgRdBW                         16.01                       # Average DRAM read bandwidth in MiByte/s
system.mem_ctrl.avgWrBW                          0.00                       # Average achieved write bandwidth in MiByte/s
system.mem_ctrl.avgRdBWSys                      16.01                       # Average system read bandwidth in MiByte/s
system.mem_ctrl.avgWrBWSys                       0.00                       # Average system write bandwidth in MiByte/s
system.mem_ctrl.peakBW                       12800.00                       # Theoretical peak bandwidth in MiByte/s
system.mem_ctrl.busUtil                          0.13                       # Data bus utilization in percentage
system.mem_ctrl.busUtilRead                      0.13                       # Data bus utilization in percentage for reads
system.mem_ctrl.busUtilWrite                     0.00                       # Data bus utilization in percentage for writes
system.mem_ctrl.avgRdQLen                        1.00                       # Average read queue length when enqueuing
system.mem_ctrl.avgWrQLen                        0.00                       # Average write queue length when enqueuing
system.mem_ctrl.readRowHits                      1105                       # Number of row buffer hits during reads
system.mem_ctrl.writeRowHits                        0                       # Number of row buffer hits during writes
system.mem_ctrl.readRowHitRate                  83.08                       # Row buffer hit rate for reads
system.mem_ctrl.writeRowHitRate                   nan                       # Row buffer hit rate for writes
system.mem_ctrl.avgGap                     3996330.45                       # Average gap between requests
system.mem_ctrl.pageHitRate                     83.08                       # Row buffer hit rate, read and write combined
system.mem_ctrl_0.actEnergy                    971040                       # Energy for activate commands per rank (pJ)
system.mem_ctrl_0.preEnergy                    500940                       # Energy for precharge commands per rank (pJ)
system.mem_ctrl_0.readEnergy                  7097160                       # Energy for read commands per rank (pJ)
system.mem_ctrl_0.writeEnergy                       0                       # Energy for write commands per rank (pJ)
system.mem_ctrl_0.refreshEnergy          37493040.000000                       # Energy for refresh commands per rank (pJ)
system.mem_ctrl_0.actBackEnergy              18704550                       # Energy for active background per rank (pJ)
system.mem_ctrl_0.preBackEnergy               1115520                       # Energy for precharge background per rank (pJ)
system.mem_ctrl_0.actPowerDownEnergy        186908700                       # Energy for active power-down per rank (pJ)
system.mem_ctrl_0.prePowerDownEnergy         10470240                       # Energy for precharge power-down per rank (pJ)
system.mem_ctrl_0.selfRefreshEnergy        1161836520                       # Energy for self refresh per rank (pJ)
system.mem_ctrl_0.totalEnergy              1425097710                       # Total energy per rank (pJ)
system.mem_ctrl_0.averagePower             268.119488                       # Core power per rank (mW)
system.mem_ctrl_0.totalIdleTime            5269883750                       # Total Idle time Per DRAM Rank
system.mem_ctrl_0.memoryStateTime::IDLE       1188500                       # Time in different power states
system.mem_ctrl_0.memoryStateTime::REF       15860000                       # Time in different power states
system.mem_ctrl_0.memoryStateTime::SREF    4834082250                       # Time in different power states
system.mem_ctrl_0.memoryStateTime::PRE_PDN     27254500                       # Time in different power states
system.mem_ctrl_0.memoryStateTime::ACT       26855000                       # Time in different power states
system.mem_ctrl_0.memoryStateTime::ACT_PDN    409918750                       # Time in different power states
system.mem_ctrl_1.actEnergy                    635460                       # Energy for activate commands per rank (pJ)
system.mem_ctrl_1.preEnergy                    318780                       # Energy for precharge commands per rank (pJ)
system.mem_ctrl_1.readEnergy                  2399040                       # Energy for read commands per rank (pJ)
system.mem_ctrl_1.writeEnergy                       0                       # Energy for write commands per rank (pJ)
system.mem_ctrl_1.refreshEnergy          3687840.000000                       # Energy for refresh commands per rank (pJ)
system.mem_ctrl_1.actBackEnergy               4633530                       # Energy for active background per rank (pJ)
system.mem_ctrl_1.preBackEnergy                226560                       # Energy for precharge background per rank (pJ)
system.mem_ctrl_1.actPowerDownEnergy         14355450                       # Energy for active power-down per rank (pJ)
system.mem_ctrl_1.prePowerDownEnergy          3277920                       # Energy for precharge power-down per rank (pJ)
system.mem_ctrl_1.selfRefreshEnergy        1264006140                       # Energy for self refresh per rank (pJ)
system.mem_ctrl_1.totalEnergy              1293540720                       # Total energy per rank (pJ)
system.mem_ctrl_1.averagePower             243.368208                       # Core power per rank (mW)
system.mem_ctrl_1.totalIdleTime            5304408000                       # Total Idle time Per DRAM Rank
system.mem_ctrl_1.memoryStateTime::IDLE        412500                       # Time in different power states
system.mem_ctrl_1.memoryStateTime::REF        1560000                       # Time in different power states
system.mem_ctrl_1.memoryStateTime::SREF    5264390500                       # Time in different power states
system.mem_ctrl_1.memoryStateTime::PRE_PDN      8535000                       # Time in different power states
system.mem_ctrl_1.memoryStateTime::ACT        8778500                       # Time in different power states
system.mem_ctrl_1.memoryStateTime::ACT_PDN     31482500                       # Time in different power states
system.pwrStateResidencyTicks::UNDEFINED   5315159000                       # Cumulative time (in ticks) in various power states
system.cpu.branchPred.lookups                 1311554                       # Number of BP lookups
system.cpu.branchPred.condPredicted           1311554                       # Number of conditional branches predicted
system.cpu.branchPred.condIncorrect             74909                       # Number of conditional branches incorrect
system.cpu.branchPred.BTBLookups               662883                       # Number of BTB lookups
system.cpu.branchPred.BTBHits                       0                       # Number of BTB hits
system.cpu.branchPred.BTBCorrect                    0                       # Number of correct BTB predictions (this stat may not work properly.
system.cpu.branchPred.BTBHitPct              0.000000                       # BTB Hit Percentage
system.cpu.branchPred.usedRAS                  236606                       # Number of times the RAS was used to get a target.
system.cpu.branchPred.RASInCorrect                701                       # Number of incorrect RAS predictions.
system.cpu.branchPred.indirectLookups          662883                       # Number of indirect predictor lookups.
system.cpu.branchPred.indirectHits             621133                       # Number of indirect target hits.
system.cpu.branchPred.indirectMisses            41750                       # Number of indirect misses.
system.cpu.branchPredindirectMispredicted         1815                       # Number of mispredicted indirect branches.
system.cpu.dtb.walker.pwrStateResidencyTicks::UNDEFINED   5315159000                       # Cumulative time (in ticks) in various power states
system.cpu.dtb.rdAccesses                     4884945                       # TLB accesses on read requests
system.cpu.dtb.wrAccesses                     1462955                       # TLB accesses on write requests
system.cpu.dtb.rdMisses                            97                       # TLB misses on read requests
system.cpu.dtb.wrMisses                            27                       # TLB misses on write requests
system.cpu.apic_clk_domain.clock                 8000                       # Clock period in ticks
system.cpu.interrupts.pwrStateResidencyTicks::UNDEFINED   5315159000                       # Cumulative time (in ticks) in various power states
system.cpu.itb.walker.pwrStateResidencyTicks::UNDEFINED   5315159000                       # Cumulative time (in ticks) in various power states
system.cpu.itb.rdAccesses                           0                       # TLB accesses on read requests
system.cpu.itb.wrAccesses                     1326630                       # TLB accesses on write requests
system.cpu.itb.rdMisses                             0                       # TLB misses on read requests
system.cpu.itb.wrMisses                           240                       # TLB misses on write requests
system.cpu.workload.numSyscalls                    11                       # Number of system calls
system.cpu.pwrStateResidencyTicks::ON      5315159000                       # Cumulative time (in ticks) in various power states
system.cpu.numCycles                         10630319                       # number of cpu cycles simulated
system.cpu.numWorkItemsStarted                      0                       # number of work items this cpu started
system.cpu.numWorkItemsCompleted                    0                       # number of work items this cpu completed
system.cpu.fetch.icacheStallCycles              80391                       # Number of cycles fetch is stalled on an Icache miss
system.cpu.fetch.Insts                       13979275                       # Number of instructions fetch has processed
system.cpu.fetch.Branches                     1311554                       # Number of branches that fetch encountered
system.cpu.fetch.predictedBranches             857739                       # Number of branches that fetch has predicted taken
system.cpu.fetch.Cycles                      10449633                       # Number of cycles fetch has run and was not squashing or blocked
system.cpu.fetch.SquashCycles                  150484                       # Number of cycles fetch has spent squashing
system.cpu.fetch.MiscStallCycles                  104                       # Number of cycles fetch has spent waiting on interrupts, or bad addresses, or out of MSHRs
system.cpu.fetch.PendingTrapStallCycles          1769                       # Number of stall cycles due to pending traps
system.cpu.fetch.PendingQuiesceStallCycles           19                       # Number of stall cycles due to pending quiesce instructions
system.cpu.fetch.IcacheWaitRetryStallCycles            9                       # Number of stall cycles due to full MSHR
system.cpu.fetch.CacheLines                   1326431                       # Number of cache lines fetched
system.cpu.fetch.IcacheSquashes                   343                       # Number of outstanding Icache misses that were squashed
system.cpu.fetch.rateDist::samples           10607167                       # Number of instructions fetched each cycle (Total)
system.cpu.fetch.rateDist::mean              1.819478                       # Number of instructions fetched each cycle (Total)
system.cpu.fetch.rateDist::stdev             0.527203                       # Number of instructions fetched each cycle (Total)
system.cpu.fetch.rateDist::underflows               0      0.00%      0.00% # Number of instructions fetched each cycle (Total)
system.cpu.fetch.rateDist::0                   689517      6.50%      6.50% # Number of instructions fetched each cycle (Total)
system.cpu.fetch.rateDist::1                   535793      5.05%     11.55% # Number of instructions fetched each cycle (Total)
system.cpu.fetch.rateDist::2                  9381857     88.45%    100.00% # Number of instructions fetched each cycle (Total)
system.cpu.fetch.rateDist::overflows                0      0.00%    100.00% # Number of instructions fetched each cycle (Total)
system.cpu.fetch.rateDist::min_value                0                       # Number of instructions fetched each cycle (Total)
system.cpu.fetch.rateDist::max_value                2                       # Number of instructions fetched each cycle (Total)
system.cpu.fetch.rateDist::total             10607167                       # Number of instructions fetched each cycle (Total)
system.cpu.fetch.branchRate                  0.123379                       # Number of branch fetches per cycle
system.cpu.fetch.rate                        1.315038                       # Number of inst fetches per cycle
system.cpu.decode.IdleCycles                   700156                       # Number of cycles decode is idle
system.cpu.decode.BlockedCycles                866990                       # Number of cycles decode is blocked
system.cpu.decode.RunCycles                   8332805                       # Number of cycles decode is running
system.cpu.decode.UnblockCycles                631974                       # Number of cycles decode is unblocking
system.cpu.decode.SquashCycles                  75242                       # Number of cycles decode is squashing
system.cpu.decode.DecodedInsts               17532051                       # Number of instructions handled by decode
system.cpu.decode.SquashedInsts                279146                       # Number of squashed instructions handled by decode
system.cpu.rename.SquashCycles                  75242                       # Number of cycles rename is squashing
system.cpu.rename.IdleCycles                  1174339                       # Number of cycles rename is idle
system.cpu.rename.BlockCycles                  259890                       # Number of cycles rename is blocking
system.cpu.rename.serializeStallCycles           1815                       # count of cycles rename stalled for serializing inst
system.cpu.rename.RunCycles                   8473415                       # Number of cycles rename is running
system.cpu.rename.UnblockCycles                622466                       # Number of cycles rename is unblocking
system.cpu.rename.RenamedInsts               17248384                       # Number of instructions processed by rename
system.cpu.rename.SquashedInsts                141196                       # Number of squashed instructions processed by rename
system.cpu.rename.ROBFullEvents                    31                       # Number of times rename has blocked due to ROB full
system.cpu.rename.IQFullEvents                 171823                       # Number of times rename has blocked due to IQ full
system.cpu.rename.LQFullEvents                  95452                       # Number of times rename has blocked due to LQ full
system.cpu.rename.SQFullEvents                 131094                       # Number of times rename has blocked due to SQ full
system.cpu.rename.FullRegisterEvents               33                       # Number of times there has been no free registers
system.cpu.rename.RenamedOperands            19120151                       # Number of destination operands rename has renamed
system.cpu.rename.RenameLookups              43650723                       # Number of register rename lookups that rename has made
system.cpu.rename.int_rename_lookups         30558500                       # Number of integer rename lookups
system.cpu.rename.fp_rename_lookups              3874                       # Number of floating rename lookups
system.cpu.rename.CommittedMaps              15483055                       # Number of HB maps that are committed
system.cpu.rename.UndoneMaps                  3637096                       # Number of HB maps that are undone due to squashing
system.cpu.rename.serializingInsts                 29                       # count of serializing insts renamed
system.cpu.rename.tempSerializingInsts             25                       # count of temporary serializing insts renamed
system.cpu.rename.skidInsts                    716373                       # count of insts added to the skid buffer
system.cpu.memDep0.insertedLoads              5181571                       # Number of loads inserted to the mem dependence unit.
system.cpu.memDep0.insertedStores             1739875                       # Number of stores inserted to the mem dependence unit.
system.cpu.memDep0.conflictingLoads           1705643                       # Number of conflicting loads.
system.cpu.memDep0.conflictingStores           458766                       # Number of conflicting stores.
system.cpu.iq.iqInstsAdded                   16964612                       # Number of instructions added to the IQ (excludes non-spec)
system.cpu.iq.iqNonSpecInstsAdded                 136                       # Number of non-speculative instructions added to the IQ
system.cpu.iq.iqInstsIssued                  15834952                       # Number of instructions issued
system.cpu.iq.iqSquashedInstsIssued             62167                       # Number of squashed instructions issued
system.cpu.iq.iqSquashedInstsExamined         3094971                       # Number of squashed instructions iterated over during squash; mainly for profiling
system.cpu.iq.iqSquashedOperandsExamined      4085520                       # Number of squashed operands that are examined and possibly removed from graph
system.cpu.iq.iqSquashedNonSpecRemoved            125                       # Number of squashed non-spec instructions that were removed
system.cpu.iq.issued_per_cycle::samples      10607167                       # Number of insts issued each cycle
system.cpu.iq.issued_per_cycle::mean         1.492854                       # Number of insts issued each cycle
system.cpu.iq.issued_per_cycle::stdev        0.695576                       # Number of insts issued each cycle
system.cpu.iq.issued_per_cycle::underflows            0      0.00%      0.00% # Number of insts issued each cycle
system.cpu.iq.issued_per_cycle::0             1240386     11.69%     11.69% # Number of insts issued each cycle
system.cpu.iq.issued_per_cycle::1             2898610     27.33%     39.02% # Number of insts issued each cycle
system.cpu.iq.issued_per_cycle::2             6468171     60.98%    100.00% # Number of insts issued each cycle
system.cpu.iq.issued_per_cycle::overflows            0      0.00%    100.00% # Number of insts issued each cycle
system.cpu.iq.issued_per_cycle::min_value            0                       # Number of insts issued each cycle
system.cpu.iq.issued_per_cycle::max_value            2                       # Number of insts issued each cycle
system.cpu.iq.issued_per_cycle::total        10607167                       # Number of insts issued each cycle
system.cpu.iq.fu_full::No_OpClass                   0      0.00%      0.00% # attempts to use FU when none available
system.cpu.iq.fu_full::IntAlu                       0      0.00%      0.00% # attempts to use FU when none available
system.cpu.iq.fu_full::IntMult                      0      0.00%      0.00% # attempts to use FU when none available
system.cpu.iq.fu_full::IntDiv                       0      0.00%      0.00% # attempts to use FU when none available
system.cpu.iq.fu_full::FloatAdd                     0      0.00%      0.00% # attempts to use FU when none available
system.cpu.iq.fu_full::FloatCmp                     0      0.00%      0.00% # attempts to use FU when none available
system.cpu.iq.fu_full::FloatCvt                     0      0.00%      0.00% # attempts to use FU when none available
system.cpu.iq.fu_full::FloatMult                    0      0.00%      0.00% # attempts to use FU when none available
system.cpu.iq.fu_full::FloatMultAcc                 0      0.00%      0.00% # attempts to use FU when none available
system.cpu.iq.fu_full::FloatDiv                     0      0.00%      0.00% # attempts to use FU when none available
system.cpu.iq.fu_full::FloatMisc                    0      0.00%      0.00% # attempts to use FU when none available
system.cpu.iq.fu_full::FloatSqrt                    0      0.00%      0.00% # attempts to use FU when none available
system.cpu.iq.fu_full::SimdAdd                    247      0.01%      0.01% # attempts to use FU when none available
system.cpu.iq.fu_full::SimdAddAcc                   0      0.00%      0.01% # attempts to use FU when none available
system.cpu.iq.fu_full::SimdAlu                     52      0.00%      0.01% # attempts to use FU when none available
system.cpu.iq.fu_full::SimdCmp                      0      0.00%      0.01% # attempts to use FU when none available
system.cpu.iq.fu_full::SimdCvt                     19      0.00%      0.01% # attempts to use FU when none available
system.cpu.iq.fu_full::SimdMisc                   119      0.00%      0.01% # attempts to use FU when none available
system.cpu.iq.fu_full::SimdMult                     0      0.00%      0.01% # attempts to use FU when none available
system.cpu.iq.fu_full::SimdMultAcc                  0      0.00%      0.01% # attempts to use FU when none available
system.cpu.iq.fu_full::SimdShift                  124      0.00%      0.02% # attempts to use FU when none available
system.cpu.iq.fu_full::SimdShiftAcc                 0      0.00%      0.02% # attempts to use FU when none available
system.cpu.iq.fu_full::SimdSqrt                     0      0.00%      0.02% # attempts to use FU when none available
system.cpu.iq.fu_full::SimdFloatAdd                 0      0.00%      0.02% # attempts to use FU when none available
system.cpu.iq.fu_full::SimdFloatAlu                 0      0.00%      0.02% # attempts to use FU when none available
system.cpu.iq.fu_full::SimdFloatCmp                 0      0.00%      0.02% # attempts to use FU when none available
system.cpu.iq.fu_full::SimdFloatCvt                 0      0.00%      0.02% # attempts to use FU when none available
system.cpu.iq.fu_full::SimdFloatDiv                 0      0.00%      0.02% # attempts to use FU when none available
system.cpu.iq.fu_full::SimdFloatMisc                0      0.00%      0.02% # attempts to use FU when none available
system.cpu.iq.fu_full::SimdFloatMult                0      0.00%      0.02% # attempts to use FU when none available
system.cpu.iq.fu_full::SimdFloatMultAcc             0      0.00%      0.02% # attempts to use FU when none available
system.cpu.iq.fu_full::SimdFloatSqrt                0      0.00%      0.02% # attempts to use FU when none available
system.cpu.iq.fu_full::SimdAes                      0      0.00%      0.02% # attempts to use FU when none available
system.cpu.iq.fu_full::SimdAesMix                   0      0.00%      0.02% # attempts to use FU when none available
system.cpu.iq.fu_full::SimdSha1Hash                 0      0.00%      0.02% # attempts to use FU when none available
system.cpu.iq.fu_full::SimdSha1Hash2                0      0.00%      0.02% # attempts to use FU when none available
system.cpu.iq.fu_full::SimdSha256Hash               0      0.00%      0.02% # attempts to use FU when none available
system.cpu.iq.fu_full::SimdSha256Hash2              0      0.00%      0.02% # attempts to use FU when none available
system.cpu.iq.fu_full::SimdShaSigma2                0      0.00%      0.02% # attempts to use FU when none available
system.cpu.iq.fu_full::SimdShaSigma3                0      0.00%      0.02% # attempts to use FU when none available
system.cpu.iq.fu_full::MemRead                2775251     90.46%     90.48% # attempts to use FU when none available
system.cpu.iq.fu_full::MemWrite                292104      9.52%    100.00% # attempts to use FU when none available
system.cpu.iq.fu_full::FloatMemRead                 0      0.00%    100.00% # attempts to use FU when none available
system.cpu.iq.fu_full::FloatMemWrite                0      0.00%    100.00% # attempts to use FU when none available
system.cpu.iq.fu_full::IprAccess                    0      0.00%    100.00% # attempts to use FU when none available
system.cpu.iq.fu_full::InstPrefetch                 0      0.00%    100.00% # attempts to use FU when none available
system.cpu.iq.FU_type_0::No_OpClass               515      0.00%      0.00% # Type of FU issued
system.cpu.iq.FU_type_0::IntAlu               9411876     59.44%     59.44% # Type of FU issued
system.cpu.iq.FU_type_0::IntMult                  126      0.00%     59.44% # Type of FU issued
system.cpu.iq.FU_type_0::IntDiv                    16      0.00%     59.44% # Type of FU issued
system.cpu.iq.FU_type_0::FloatAdd                  11      0.00%     59.44% # Type of FU issued
system.cpu.iq.FU_type_0::FloatCmp                   0      0.00%     59.44% # Type of FU issued
system.cpu.iq.FU_type_0::FloatCvt                   0      0.00%     59.44% # Type of FU issued
system.cpu.iq.FU_type_0::FloatMult                  0      0.00%     59.44% # Type of FU issued
system.cpu.iq.FU_type_0::FloatMultAcc               0      0.00%     59.44% # Type of FU issued
system.cpu.iq.FU_type_0::FloatDiv                   0      0.00%     59.44% # Type of FU issued
system.cpu.iq.FU_type_0::FloatMisc                  0      0.00%     59.44% # Type of FU issued
system.cpu.iq.FU_type_0::FloatSqrt                  0      0.00%     59.44% # Type of FU issued
system.cpu.iq.FU_type_0::SimdAdd                  375      0.00%     59.44% # Type of FU issued
system.cpu.iq.FU_type_0::SimdAddAcc                 0      0.00%     59.44% # Type of FU issued
system.cpu.iq.FU_type_0::SimdAlu                   72      0.00%     59.44% # Type of FU issued
system.cpu.iq.FU_type_0::SimdCmp                    0      0.00%     59.44% # Type of FU issued
system.cpu.iq.FU_type_0::SimdCvt                  108      0.00%     59.45% # Type of FU issued
system.cpu.iq.FU_type_0::SimdMisc                 224      0.00%     59.45% # Type of FU issued
system.cpu.iq.FU_type_0::SimdMult                   0      0.00%     59.45% # Type of FU issued
system.cpu.iq.FU_type_0::SimdMultAcc                0      0.00%     59.45% # Type of FU issued
system.cpu.iq.FU_type_0::SimdShift                186      0.00%     59.45% # Type of FU issued
system.cpu.iq.FU_type_0::SimdShiftAcc               0      0.00%     59.45% # Type of FU issued
system.cpu.iq.FU_type_0::SimdSqrt                   0      0.00%     59.45% # Type of FU issued
system.cpu.iq.FU_type_0::SimdFloatAdd               0      0.00%     59.45% # Type of FU issued
system.cpu.iq.FU_type_0::SimdFloatAlu               0      0.00%     59.45% # Type of FU issued
system.cpu.iq.FU_type_0::SimdFloatCmp               0      0.00%     59.45% # Type of FU issued
system.cpu.iq.FU_type_0::SimdFloatCvt               0      0.00%     59.45% # Type of FU issued
system.cpu.iq.FU_type_0::SimdFloatDiv               0      0.00%     59.45% # Type of FU issued
system.cpu.iq.FU_type_0::SimdFloatMisc              0      0.00%     59.45% # Type of FU issued
system.cpu.iq.FU_type_0::SimdFloatMult              0      0.00%     59.45% # Type of FU issued
system.cpu.iq.FU_type_0::SimdFloatMultAcc            0      0.00%     59.45% # Type of FU issued
system.cpu.iq.FU_type_0::SimdFloatSqrt              0      0.00%     59.45% # Type of FU issued
system.cpu.iq.FU_type_0::SimdAes                    0      0.00%     59.45% # Type of FU issued
system.cpu.iq.FU_type_0::SimdAesMix                 0      0.00%     59.45% # Type of FU issued
system.cpu.iq.FU_type_0::SimdSha1Hash               0      0.00%     59.45% # Type of FU issued
system.cpu.iq.FU_type_0::SimdSha1Hash2              0      0.00%     59.45% # Type of FU issued
system.cpu.iq.FU_type_0::SimdSha256Hash             0      0.00%     59.45% # Type of FU issued
system.cpu.iq.FU_type_0::SimdSha256Hash2            0      0.00%     59.45% # Type of FU issued
system.cpu.iq.FU_type_0::SimdShaSigma2              0      0.00%     59.45% # Type of FU issued
system.cpu.iq.FU_type_0::SimdShaSigma3              0      0.00%     59.45% # Type of FU issued
system.cpu.iq.FU_type_0::MemRead              4927162     31.12%     90.56% # Type of FU issued
system.cpu.iq.FU_type_0::MemWrite             1493793      9.43%    100.00% # Type of FU issued
system.cpu.iq.FU_type_0::FloatMemRead              62      0.00%    100.00% # Type of FU issued
system.cpu.iq.FU_type_0::FloatMemWrite            426      0.00%    100.00% # Type of FU issued
system.cpu.iq.FU_type_0::IprAccess                  0      0.00%    100.00% # Type of FU issued
system.cpu.iq.FU_type_0::InstPrefetch               0      0.00%    100.00% # Type of FU issued
system.cpu.iq.FU_type_0::total               15834952                       # Type of FU issued
system.cpu.iq.rate                           1.489603                       # Inst issue rate
system.cpu.iq.fu_busy_cnt                     3067916                       # FU busy when requested
system.cpu.iq.fu_busy_rate                   0.193743                       # FU busy rate (busy events/executed inst)
system.cpu.iq.int_inst_queue_reads           45402634                       # Number of integer instruction queue reads
system.cpu.iq.int_inst_queue_writes          20057881                       # Number of integer instruction queue writes
system.cpu.iq.int_inst_queue_wakeup_accesses     15480197                       # Number of integer instruction queue wakeup accesses
system.cpu.iq.fp_inst_queue_reads                4520                       # Number of floating instruction queue reads
system.cpu.iq.fp_inst_queue_writes               2097                       # Number of floating instruction queue writes
system.cpu.iq.fp_inst_queue_wakeup_accesses         1964                       # Number of floating instruction queue wakeup accesses
system.cpu.iq.vec_inst_queue_reads                  0                       # Number of vector instruction queue reads
system.cpu.iq.vec_inst_queue_writes                 0                       # Number of vector instruction queue writes
system.cpu.iq.vec_inst_queue_wakeup_accesses            0                       # Number of vector instruction queue wakeup accesses
system.cpu.iq.int_alu_accesses               18899813                       # Number of integer alu accesses
system.cpu.iq.fp_alu_accesses                    2540                       # Number of floating point alu accesses
system.cpu.iq.vec_alu_accesses                      0                       # Number of vector alu accesses
system.cpu.iew.lsq.thread0.forwLoads          1816773                       # Number of loads that had data forwarded from stores
system.cpu.iew.lsq.thread0.invAddrLoads             0                       # Number of loads ignored due to an invalid address
system.cpu.iew.lsq.thread0.squashedLoads       950845                       # Number of loads squashed
system.cpu.iew.lsq.thread0.ignoredResponses         3528                       # Number of memory responses ignored because the instruction is squashed
system.cpu.iew.lsq.thread0.memOrderViolation          259                       # Number of memory ordering violations
system.cpu.iew.lsq.thread0.squashedStores       334213                       # Number of stores squashed
system.cpu.iew.lsq.thread0.invAddrSwpfs             0                       # Number of software prefetches ignored due to an invalid address
system.cpu.iew.lsq.thread0.blockedLoads             0                       # Number of blocked loads due to partial load-store forwarding
system.cpu.iew.lsq.thread0.rescheduledLoads            0                       # Number of loads that were rescheduled
system.cpu.iew.lsq.thread0.cacheBlocked            13                       # Number of times an access to memory failed due to the cache being blocked
system.cpu.iew.iewIdleCycles                        0                       # Number of cycles IEW is idle
system.cpu.iew.iewSquashCycles                  75242                       # Number of cycles IEW is squashing
system.cpu.iew.iewBlockCycles                  155735                       # Number of cycles IEW is blocking
system.cpu.iew.iewUnblockCycles                  1901                       # Number of cycles IEW is unblocking
system.cpu.iew.iewDispatchedInsts            16964748                       # Number of instructions dispatched to IQ
system.cpu.iew.iewDispSquashedInsts              3022                       # Number of squashed instructions skipped by dispatch
system.cpu.iew.iewDispLoadInsts               5181571                       # Number of dispatched load instructions
system.cpu.iew.iewDispStoreInsts              1739875                       # Number of dispatched store instructions
system.cpu.iew.iewDispNonSpecInsts                 59                       # Number of dispatched non-speculative instructions
system.cpu.iew.iewIQFullEvents                     29                       # Number of times the IQ has become full, causing a stall
system.cpu.iew.iewLSQFullEvents                  1843                       # Number of times the LSQ has become full, causing a stall
system.cpu.iew.memOrderViolationEvents            259                       # Number of memory order violations
system.cpu.iew.predictedTakenIncorrect          41603                       # Number of branches that were predicted taken incorrectly
system.cpu.iew.predictedNotTakenIncorrect        41403                       # Number of branches that were predicted not taken incorrectly
system.cpu.iew.branchMispredicts                83006                       # Number of branch mispredicts detected at execute
system.cpu.iew.iewExecutedInsts              15613616                       # Number of executed instructions
system.cpu.iew.iewExecLoadInsts               4884940                       # Number of load instructions executed
system.cpu.iew.iewExecSquashedInsts            221336                       # Number of squashed instructions skipped in execute
system.cpu.iew.exec_swp                             0                       # number of swp insts executed
system.cpu.iew.exec_nop                             0                       # number of nop insts executed
system.cpu.iew.exec_refs                      6347895                       # number of memory reference insts executed
system.cpu.iew.exec_branches                  1019120                       # Number of branches executed
system.cpu.iew.exec_stores                    1462955                       # Number of stores executed
system.cpu.iew.exec_rate                     1.468782                       # Inst execution rate
system.cpu.iew.wb_sent                       15571976                       # cumulative count of insts sent to commit
system.cpu.iew.wb_count                      15482161                       # cumulative count of insts written-back
system.cpu.iew.wb_producers                  12556086                       # num instructions producing a value
system.cpu.iew.wb_consumers                  16878360                       # num instructions consuming a value
system.cpu.iew.wb_rate                       1.456415                       # insts written-back per cycle
system.cpu.iew.wb_fanout                     0.743916                       # average fanout of values written-back
system.cpu.commit.commitSquashedInsts         2952601                       # The number of squashed insts skipped by commit
system.cpu.commit.commitNonSpecStalls              11                       # The number of times commit has been forced to stall to communicate backwards
system.cpu.commit.branchMispredicts             75008                       # The number of times a branch was mispredicted
system.cpu.commit.committed_per_cycle::samples     10386816                       # Number of insts commited each cycle
system.cpu.commit.committed_per_cycle::mean     1.335325                       # Number of insts commited each cycle
system.cpu.commit.committed_per_cycle::stdev     0.885490                       # Number of insts commited each cycle
system.cpu.commit.committed_per_cycle::underflows            0      0.00%      0.00% # Number of insts commited each cycle
system.cpu.commit.committed_per_cycle::0      2914594     28.06%     28.06% # Number of insts commited each cycle
system.cpu.commit.committed_per_cycle::1      1074668     10.35%     38.41% # Number of insts commited each cycle
system.cpu.commit.committed_per_cycle::2      6397554     61.59%    100.00% # Number of insts commited each cycle
system.cpu.commit.committed_per_cycle::overflows            0      0.00%    100.00% # Number of insts commited each cycle
system.cpu.commit.committed_per_cycle::min_value            0                       # Number of insts commited each cycle
system.cpu.commit.committed_per_cycle::max_value            2                       # Number of insts commited each cycle
system.cpu.commit.committed_per_cycle::total     10386816                       # Number of insts commited each cycle
system.cpu.commit.committedInsts              9904383                       # Number of instructions committed
system.cpu.commit.committedOps               13869776                       # Number of ops (including micro ops) committed
system.cpu.commit.swp_count                         0                       # Number of s/w prefetches committed
system.cpu.commit.refs                        5636388                       # Number of memory references committed
system.cpu.commit.loads                       4230726                       # Number of loads committed
system.cpu.commit.membars                           0                       # Number of memory barriers committed
system.cpu.commit.branches                     993446                       # Number of branches committed
system.cpu.commit.vec_insts                         0                       # Number of committed Vector instructions.
system.cpu.commit.fp_insts                       1935                       # Number of committed floating point instructions.
system.cpu.commit.int_insts                  13740604                       # Number of committed integer instructions.
system.cpu.commit.function_calls               169177                       # Number of function calls committed.
system.cpu.commit.op_class_0::No_OpClass          101      0.00%      0.00% # Class of committed instruction
system.cpu.commit.op_class_0::IntAlu          8232189     59.35%     59.35% # Class of committed instruction
system.cpu.commit.op_class_0::IntMult             124      0.00%     59.36% # Class of committed instruction
system.cpu.commit.op_class_0::IntDiv               14      0.00%     59.36% # Class of committed instruction
system.cpu.commit.op_class_0::FloatAdd             10      0.00%     59.36% # Class of committed instruction
system.cpu.commit.op_class_0::FloatCmp              0      0.00%     59.36% # Class of committed instruction
system.cpu.commit.op_class_0::FloatCvt              0      0.00%     59.36% # Class of committed instruction
system.cpu.commit.op_class_0::FloatMult             0      0.00%     59.36% # Class of committed instruction
system.cpu.commit.op_class_0::FloatMultAcc            0      0.00%     59.36% # Class of committed instruction
system.cpu.commit.op_class_0::FloatDiv              0      0.00%     59.36% # Class of committed instruction
system.cpu.commit.op_class_0::FloatMisc             0      0.00%     59.36% # Class of committed instruction
system.cpu.commit.op_class_0::FloatSqrt             0      0.00%     59.36% # Class of committed instruction
system.cpu.commit.op_class_0::SimdAdd             374      0.00%     59.36% # Class of committed instruction
system.cpu.commit.op_class_0::SimdAddAcc            0      0.00%     59.36% # Class of committed instruction
system.cpu.commit.op_class_0::SimdAlu              68      0.00%     59.36% # Class of committed instruction
system.cpu.commit.op_class_0::SimdCmp               0      0.00%     59.36% # Class of committed instruction
system.cpu.commit.op_class_0::SimdCvt             108      0.00%     59.36% # Class of committed instruction
system.cpu.commit.op_class_0::SimdMisc            214      0.00%     59.36% # Class of committed instruction
system.cpu.commit.op_class_0::SimdMult              0      0.00%     59.36% # Class of committed instruction
system.cpu.commit.op_class_0::SimdMultAcc            0      0.00%     59.36% # Class of committed instruction
system.cpu.commit.op_class_0::SimdShift           186      0.00%     59.36% # Class of committed instruction
system.cpu.commit.op_class_0::SimdShiftAcc            0      0.00%     59.36% # Class of committed instruction
system.cpu.commit.op_class_0::SimdSqrt              0      0.00%     59.36% # Class of committed instruction
system.cpu.commit.op_class_0::SimdFloatAdd            0      0.00%     59.36% # Class of committed instruction
system.cpu.commit.op_class_0::SimdFloatAlu            0      0.00%     59.36% # Class of committed instruction
system.cpu.commit.op_class_0::SimdFloatCmp            0      0.00%     59.36% # Class of committed instruction
system.cpu.commit.op_class_0::SimdFloatCvt            0      0.00%     59.36% # Class of committed instruction
system.cpu.commit.op_class_0::SimdFloatDiv            0      0.00%     59.36% # Class of committed instruction
system.cpu.commit.op_class_0::SimdFloatMisc            0      0.00%     59.36% # Class of committed instruction
system.cpu.commit.op_class_0::SimdFloatMult            0      0.00%     59.36% # Class of committed instruction
system.cpu.commit.op_class_0::SimdFloatMultAcc            0      0.00%     59.36% # Class of committed instruction
system.cpu.commit.op_class_0::SimdFloatSqrt            0      0.00%     59.36% # Class of committed instruction
system.cpu.commit.op_class_0::SimdAes               0      0.00%     59.36% # Class of committed instruction
system.cpu.commit.op_class_0::SimdAesMix            0      0.00%     59.36% # Class of committed instruction
system.cpu.commit.op_class_0::SimdSha1Hash            0      0.00%     59.36% # Class of committed instruction
system.cpu.commit.op_class_0::SimdSha1Hash2            0      0.00%     59.36% # Class of committed instruction
system.cpu.commit.op_class_0::SimdSha256Hash            0      0.00%     59.36% # Class of committed instruction
system.cpu.commit.op_class_0::SimdSha256Hash2            0      0.00%     59.36% # Class of committed instruction
system.cpu.commit.op_class_0::SimdShaSigma2            0      0.00%     59.36% # Class of committed instruction
system.cpu.commit.op_class_0::SimdShaSigma3            0      0.00%     59.36% # Class of committed instruction
system.cpu.commit.op_class_0::MemRead         4230674     30.50%     89.86% # Class of committed instruction
system.cpu.commit.op_class_0::MemWrite        1405251     10.13%    100.00% # Class of committed instruction
system.cpu.commit.op_class_0::FloatMemRead           52      0.00%    100.00% # Class of committed instruction
system.cpu.commit.op_class_0::FloatMemWrite          411      0.00%    100.00% # Class of committed instruction
system.cpu.commit.op_class_0::IprAccess             0      0.00%    100.00% # Class of committed instruction
system.cpu.commit.op_class_0::InstPrefetch            0      0.00%    100.00% # Class of committed instruction
system.cpu.commit.op_class_0::total          13869776                       # Class of committed instruction
system.cpu.commit.bw_lim_events               6397554                       # number cycles where commit BW limit reached
system.cpu.rob.rob_reads                     20811639                       # The number of ROB reads
system.cpu.rob.rob_writes                    33865111                       # The number of ROB writes
system.cpu.timesIdled                             267                       # Number of times that the entire CPU went into an idle state and unscheduled itself
system.cpu.idleCycles                           23152                       # Total number of cycles that the CPU has spent unscheduled due to idling
system.cpu.committedInsts                     9904383                       # Number of Instructions Simulated
system.cpu.committedOps                      13869776                       # Number of Ops (including micro ops) Simulated
system.cpu.cpi                               1.073294                       # CPI: Cycles Per Instruction
system.cpu.cpi_total                         1.073294                       # CPI: Total CPI of All Threads
system.cpu.ipc                               0.931711                       # IPC: Instructions Per Cycle
system.cpu.ipc_total                         0.931711                       # IPC: Total IPC of All Threads
system.cpu.int_regfile_reads                 26940942                       # number of integer regfile reads
system.cpu.int_regfile_writes                12956154                       # number of integer regfile writes
system.cpu.fp_regfile_reads                      3796                       # number of floating regfile reads
system.cpu.fp_regfile_writes                     1482                       # number of floating regfile writes
system.cpu.cc_regfile_reads                   3380766                       # number of cc regfile reads
system.cpu.cc_regfile_writes                  4563212                       # number of cc regfile writes
system.cpu.misc_regfile_reads                 8362823                       # number of misc regfile reads
system.cpu.dcache.tags.pwrStateResidencyTicks::UNDEFINED   5315159000                       # Cumulative time (in ticks) in various power states
system.cpu.dcache.tags.tagsinuse           803.971242                       # Cycle average of tags in use
system.cpu.dcache.tags.total_refs             4473619                       # Total number of references to valid blocks.
system.cpu.dcache.tags.sampled_refs               849                       # Sample count of references to valid blocks.
system.cpu.dcache.tags.avg_refs           5269.280330                       # Average number of references to valid blocks.
system.cpu.dcache.tags.warmup_cycle            170000                       # Cycle when the warmup percentage was hit.
system.cpu.dcache.tags.occ_blocks::.cpu.data   803.971242                       # Average occupied blocks per requestor
system.cpu.dcache.tags.occ_percent::.cpu.data     0.785128                       # Average percentage of cache occupancy
system.cpu.dcache.tags.occ_percent::total     0.785128                       # Average percentage of cache occupancy
system.cpu.dcache.tags.occ_task_id_blocks::1024          848                       # Occupied blocks per task id
system.cpu.dcache.tags.age_task_id_blocks_1024::0           16                       # Occupied blocks per task id
system.cpu.dcache.tags.age_task_id_blocks_1024::3          832                       # Occupied blocks per task id
system.cpu.dcache.tags.occ_task_id_percent::1024     0.828125                       # Percentage of cache occupancy per task id
system.cpu.dcache.tags.tag_accesses          35790745                       # Number of tag accesses
system.cpu.dcache.tags.data_accesses         35790745                       # Number of data accesses
system.cpu.dcache.pwrStateResidencyTicks::UNDEFINED   5315159000                       # Cumulative time (in ticks) in various power states
system.cpu.dcache.ReadReq_hits::.cpu.data      3067845                       # number of ReadReq hits
system.cpu.dcache.ReadReq_hits::total         3067845                       # number of ReadReq hits
system.cpu.dcache.WriteReq_hits::.cpu.data      1404925                       # number of WriteReq hits
system.cpu.dcache.WriteReq_hits::total        1404925                       # number of WriteReq hits
system.cpu.dcache.demand_hits::.cpu.data      4472770                       # number of demand (read+write) hits
system.cpu.dcache.demand_hits::total          4472770                       # number of demand (read+write) hits
system.cpu.dcache.overall_hits::.cpu.data      4472770                       # number of overall hits
system.cpu.dcache.overall_hits::total         4472770                       # number of overall hits
system.cpu.dcache.ReadReq_misses::.cpu.data          230                       # number of ReadReq misses
system.cpu.dcache.ReadReq_misses::total           230                       # number of ReadReq misses
system.cpu.dcache.WriteReq_misses::.cpu.data          737                       # number of WriteReq misses
system.cpu.dcache.WriteReq_misses::total          737                       # number of WriteReq misses
system.cpu.dcache.demand_misses::.cpu.data          967                       # number of demand (read+write) misses
system.cpu.dcache.demand_misses::total            967                       # number of demand (read+write) misses
system.cpu.dcache.overall_misses::.cpu.data          967                       # number of overall misses
system.cpu.dcache.overall_misses::total           967                       # number of overall misses
system.cpu.dcache.ReadReq_miss_latency::.cpu.data     17431500                       # number of ReadReq miss cycles
system.cpu.dcache.ReadReq_miss_latency::total     17431500                       # number of ReadReq miss cycles
system.cpu.dcache.WriteReq_miss_latency::.cpu.data     63533000                       # number of WriteReq miss cycles
system.cpu.dcache.WriteReq_miss_latency::total     63533000                       # number of WriteReq miss cycles
system.cpu.dcache.demand_miss_latency::.cpu.data     80964500                       # number of demand (read+write) miss cycles
system.cpu.dcache.demand_miss_latency::total     80964500                       # number of demand (read+write) miss cycles
system.cpu.dcache.overall_miss_latency::.cpu.data     80964500                       # number of overall miss cycles
system.cpu.dcache.overall_miss_latency::total     80964500                       # number of overall miss cycles
system.cpu.dcache.ReadReq_accesses::.cpu.data      3068075                       # number of ReadReq accesses(hits+misses)
system.cpu.dcache.ReadReq_accesses::total      3068075                       # number of ReadReq accesses(hits+misses)
system.cpu.dcache.WriteReq_accesses::.cpu.data      1405662                       # number of WriteReq accesses(hits+misses)
system.cpu.dcache.WriteReq_accesses::total      1405662                       # number of WriteReq accesses(hits+misses)
system.cpu.dcache.demand_accesses::.cpu.data      4473737                       # number of demand (read+write) accesses
system.cpu.dcache.demand_accesses::total      4473737                       # number of demand (read+write) accesses
system.cpu.dcache.overall_accesses::.cpu.data      4473737                       # number of overall (read+write) accesses
system.cpu.dcache.overall_accesses::total      4473737                       # number of overall (read+write) accesses
system.cpu.dcache.ReadReq_miss_rate::.cpu.data     0.000075                       # miss rate for ReadReq accesses
system.cpu.dcache.ReadReq_miss_rate::total     0.000075                       # miss rate for ReadReq accesses
system.cpu.dcache.WriteReq_miss_rate::.cpu.data     0.000524                       # miss rate for WriteReq accesses
system.cpu.dcache.WriteReq_miss_rate::total     0.000524                       # miss rate for WriteReq accesses
system.cpu.dcache.demand_miss_rate::.cpu.data     0.000216                       # miss rate for demand accesses
system.cpu.dcache.demand_miss_rate::total     0.000216                       # miss rate for demand accesses
system.cpu.dcache.overall_miss_rate::.cpu.data     0.000216                       # miss rate for overall accesses
system.cpu.dcache.overall_miss_rate::total     0.000216                       # miss rate for overall accesses
system.cpu.dcache.ReadReq_avg_miss_latency::.cpu.data 75789.130435                       # average ReadReq miss latency
system.cpu.dcache.ReadReq_avg_miss_latency::total 75789.130435                       # average ReadReq miss latency
system.cpu.dcache.WriteReq_avg_miss_latency::.cpu.data 86204.884668                       # average WriteReq miss latency
system.cpu.dcache.WriteReq_avg_miss_latency::total 86204.884668                       # average WriteReq miss latency
system.cpu.dcache.demand_avg_miss_latency::.cpu.data 83727.507756                       # average overall miss latency
system.cpu.dcache.demand_avg_miss_latency::total 83727.507756                       # average overall miss latency
[...]
system.l3bus.snoop_fanout::1                        0      0.00%    100.00% # Request fanout histogram
system.l3bus.snoop_fanout::overflows                0      0.00%    100.00% # Request fanout histogram
system.l3bus.snoop_fanout::min_value                0                       # Request fanout histogram
system.l3bus.snoop_fanout::max_value                0                       # Request fanout histogram
system.l3bus.snoop_fanout::total                 1330                       # Request fanout histogram
system.l3bus.reqLayer0.occupancy               665000                       # Layer occupancy (ticks)
system.l3bus.reqLayer0.utilization                0.0                       # Layer utilization (%)
system.l3bus.respLayer0.occupancy             3322500                       # Layer occupancy (ticks)
system.l3bus.respLayer0.utilization               0.1                       # Layer utilization (%)
system.l3cache.tags.pwrStateResidencyTicks::UNDEFINED   5315159000                       # Cumulative time (in ticks) in various power states
system.l3cache.tags.tagsinuse             1221.770077                       # Cycle average of tags in use
system.l3cache.tags.total_refs                   1329                       # Total number of references to valid blocks.
system.l3cache.tags.sampled_refs                 1329                       # Sample count of references to valid blocks.
system.l3cache.tags.avg_refs                        1                       # Average number of references to valid blocks.
system.l3cache.tags.warmup_cycle                76000                       # Cycle when the warmup percentage was hit.
system.l3cache.tags.occ_blocks::.cpu.inst   417.791403                       # Average occupied blocks per requestor
system.l3cache.tags.occ_blocks::.cpu.data   803.978674                       # Average occupied blocks per requestor
system.l3cache.tags.occ_percent::.cpu.inst     0.006375                       # Average percentage of cache occupancy
system.l3cache.tags.occ_percent::.cpu.data     0.012268                       # Average percentage of cache occupancy
system.l3cache.tags.occ_percent::total       0.018643                       # Average percentage of cache occupancy
system.l3cache.tags.occ_task_id_blocks::1024         1329                       # Occupied blocks per task id
system.l3cache.tags.age_task_id_blocks_1024::0           77                       # Occupied blocks per task id
system.l3cache.tags.age_task_id_blocks_1024::3         1252                       # Occupied blocks per task id
system.l3cache.tags.occ_task_id_percent::1024     0.020279                       # Percentage of cache occupancy per task id
system.l3cache.tags.tag_accesses                22609                       # Number of tag accesses
system.l3cache.tags.data_accesses               22609                       # Number of data accesses
system.l3cache.pwrStateResidencyTicks::UNDEFINED   5315159000                       # Cumulative time (in ticks) in various power states
system.l3cache.ReadExReq_misses::.cpu.data          737                       # number of ReadExReq misses
system.l3cache.ReadExReq_misses::total            737                       # number of ReadExReq misses
system.l3cache.ReadSharedReq_misses::.cpu.inst          482                       # number of ReadSharedReq misses
system.l3cache.ReadSharedReq_misses::.cpu.data          111                       # number of ReadSharedReq misses
system.l3cache.ReadSharedReq_misses::total          593                       # number of ReadSharedReq misses
system.l3cache.demand_misses::.cpu.inst           482                       # number of demand (read+write) misses
system.l3cache.demand_misses::.cpu.data           848                       # number of demand (read+write) misses
system.l3cache.demand_misses::total              1330                       # number of demand (read+write) misses
system.l3cache.overall_misses::.cpu.inst          482                       # number of overall misses
system.l3cache.overall_misses::.cpu.data          848                       # number of overall misses
system.l3cache.overall_misses::total             1330                       # number of overall misses
system.l3cache.ReadExReq_miss_latency::.cpu.data     53583500                       # number of ReadExReq miss cycles
system.l3cache.ReadExReq_miss_latency::total     53583500                       # number of ReadExReq miss cycles
system.l3cache.ReadSharedReq_miss_latency::.cpu.inst     35789500                       # number of ReadSharedReq miss cycles
system.l3cache.ReadSharedReq_miss_latency::.cpu.data      7986500                       # number of ReadSharedReq miss cycles
system.l3cache.ReadSharedReq_miss_latency::total     43776000                       # number of ReadSharedReq miss cycles
system.l3cache.demand_miss_latency::.cpu.inst     35789500                       # number of demand (read+write) miss cycles
system.l3cache.demand_miss_latency::.cpu.data     61570000                       # number of demand (read+write) miss cycles
system.l3cache.demand_miss_latency::total     97359500                       # number of demand (read+write) miss cycles
system.l3cache.overall_miss_latency::.cpu.inst     35789500                       # number of overall miss cycles
system.l3cache.overall_miss_latency::.cpu.data     61570000                       # number of overall miss cycles
system.l3cache.overall_miss_latency::total     97359500                       # number of overall miss cycles
system.l3cache.ReadExReq_accesses::.cpu.data          737                       # number of ReadExReq accesses(hits+misses)
system.l3cache.ReadExReq_accesses::total          737                       # number of ReadExReq accesses(hits+misses)
system.l3cache.ReadSharedReq_accesses::.cpu.inst          482                       # number of ReadSharedReq accesses(hits+misses)
system.l3cache.ReadSharedReq_accesses::.cpu.data          111                       # number of ReadSharedReq accesses(hits+misses)
system.l3cache.ReadSharedReq_accesses::total          593                       # number of ReadSharedReq accesses(hits+misses)
system.l3cache.demand_accesses::.cpu.inst          482                       # number of demand (read+write) accesses
system.l3cache.demand_accesses::.cpu.data          848                       # number of demand (read+write) accesses
system.l3cache.demand_accesses::total            1330                       # number of demand (read+write) accesses
system.l3cache.overall_accesses::.cpu.inst          482                       # number of overall (read+write) accesses
system.l3cache.overall_accesses::.cpu.data          848                       # number of overall (read+write) accesses
system.l3cache.overall_accesses::total           1330                       # number of overall (read+write) accesses
system.l3cache.ReadExReq_miss_rate::.cpu.data            1                       # miss rate for ReadExReq accesses
system.l3cache.ReadExReq_miss_rate::total            1                       # miss rate for ReadExReq accesses
system.l3cache.ReadSharedReq_miss_rate::.cpu.inst            1                       # miss rate for ReadSharedReq accesses
system.l3cache.ReadSharedReq_miss_rate::.cpu.data            1                       # miss rate for ReadSharedReq accesses
system.l3cache.ReadSharedReq_miss_rate::total            1                       # miss rate for ReadSharedReq accesses
system.l3cache.demand_miss_rate::.cpu.inst            1                       # miss rate for demand accesses
system.l3cache.demand_miss_rate::.cpu.data            1                       # miss rate for demand accesses
system.l3cache.demand_miss_rate::total              1                       # miss rate for demand accesses
system.l3cache.overall_miss_rate::.cpu.inst            1                       # miss rate for overall accesses
system.l3cache.overall_miss_rate::.cpu.data            1                       # miss rate for overall accesses
system.l3cache.overall_miss_rate::total             1                       # miss rate for overall accesses
system.l3cache.ReadExReq_avg_miss_latency::.cpu.data 72704.884668                       # average ReadExReq miss latency
system.l3cache.ReadExReq_avg_miss_latency::total 72704.884668                       # average ReadExReq miss latency
system.l3cache.ReadSharedReq_avg_miss_latency::.cpu.inst 74252.074689                       # average ReadSharedReq miss latency
system.l3cache.ReadSharedReq_avg_miss_latency::.cpu.data 71950.450450                       # average ReadSharedReq miss latency
system.l3cache.ReadSharedReq_avg_miss_latency::total 73821.247892                       # average ReadSharedReq miss latency
system.l3cache.demand_avg_miss_latency::.cpu.inst 74252.074689                       # average overall miss latency
system.l3cache.demand_avg_miss_latency::.cpu.data 72606.132075                       # average overall miss latency
system.l3cache.demand_avg_miss_latency::total 73202.631579                       # average overall miss latency
system.l3cache.overall_avg_miss_latency::.cpu.inst 74252.074689                       # average overall miss latency
system.l3cache.overall_avg_miss_latency::.cpu.data 72606.132075                       # average overall miss latency
system.l3cache.overall_avg_miss_latency::total 73202.631579                       # average overall miss latency
system.l3cache.blocked_cycles::no_mshrs             0                       # number of cycles access was blocked
system.l3cache.blocked_cycles::no_targets            0                       # number of cycles access was blocked
system.l3cache.blocked::no_mshrs                    0                       # number of cycles access was blocked
system.l3cache.blocked::no_targets                  0                       # number of cycles access was blocked
system.l3cache.avg_blocked_cycles::no_mshrs          nan                       # average number of cycles each access was blocked
system.l3cache.avg_blocked_cycles::no_targets          nan                       # average number of cycles each access was blocked
system.l3cache.ReadExReq_mshr_misses::.cpu.data          737                       # number of ReadExReq MSHR misses
system.l3cache.ReadExReq_mshr_misses::total          737                       # number of ReadExReq MSHR misses
system.l3cache.ReadSharedReq_mshr_misses::.cpu.inst          482                       # number of ReadSharedReq MSHR misses
system.l3cache.ReadSharedReq_mshr_misses::.cpu.data          111                       # number of ReadSharedReq MSHR misses
system.l3cache.ReadSharedReq_mshr_misses::total          593                       # number of ReadSharedReq MSHR misses
system.l3cache.demand_mshr_misses::.cpu.inst          482                       # number of demand (read+write) MSHR misses
system.l3cache.demand_mshr_misses::.cpu.data          848                       # number of demand (read+write) MSHR misses
system.l3cache.demand_mshr_misses::total         1330                       # number of demand (read+write) MSHR misses
system.l3cache.overall_mshr_misses::.cpu.inst          482                       # number of overall MSHR misses
system.l3cache.overall_mshr_misses::.cpu.data          848                       # number of overall MSHR misses
system.l3cache.overall_mshr_misses::total         1330                       # number of overall MSHR misses
system.l3cache.ReadExReq_mshr_miss_latency::.cpu.data     52109500                       # number of ReadExReq MSHR miss cycles
system.l3cache.ReadExReq_mshr_miss_latency::total     52109500                       # number of ReadExReq MSHR miss cycles
system.l3cache.ReadSharedReq_mshr_miss_latency::.cpu.inst     34827500                       # number of ReadSharedReq MSHR miss cycles
system.l3cache.ReadSharedReq_mshr_miss_latency::.cpu.data      7764500                       # number of ReadSharedReq MSHR miss cycles
system.l3cache.ReadSharedReq_mshr_miss_latency::total     42592000                       # number of ReadSharedReq MSHR miss cycles
system.l3cache.demand_mshr_miss_latency::.cpu.inst     34827500                       # number of demand (read+write) MSHR miss cycles
system.l3cache.demand_mshr_miss_latency::.cpu.data     59874000                       # number of demand (read+write) MSHR miss cycles
system.l3cache.demand_mshr_miss_latency::total     94701500                       # number of demand (read+write) MSHR miss cycles
system.l3cache.overall_mshr_miss_latency::.cpu.inst     34827500                       # number of overall MSHR miss cycles
system.l3cache.overall_mshr_miss_latency::.cpu.data     59874000                       # number of overall MSHR miss cycles
system.l3cache.overall_mshr_miss_latency::total     94701500                       # number of overall MSHR miss cycles
system.l3cache.ReadExReq_mshr_miss_rate::.cpu.data            1                       # mshr miss rate for ReadExReq accesses
system.l3cache.ReadExReq_mshr_miss_rate::total            1                       # mshr miss rate for ReadExReq accesses
system.l3cache.ReadSharedReq_mshr_miss_rate::.cpu.inst            1                       # mshr miss rate for ReadSharedReq accesses
system.l3cache.ReadSharedReq_mshr_miss_rate::.cpu.data            1                       # mshr miss rate for ReadSharedReq accesses
system.l3cache.ReadSharedReq_mshr_miss_rate::total            1                       # mshr miss rate for ReadSharedReq accesses
system.l3cache.demand_mshr_miss_rate::.cpu.inst            1                       # mshr miss rate for demand accesses
system.l3cache.demand_mshr_miss_rate::.cpu.data            1                       # mshr miss rate for demand accesses
system.l3cache.demand_mshr_miss_rate::total            1                       # mshr miss rate for demand accesses
system.l3cache.overall_mshr_miss_rate::.cpu.inst            1                       # mshr miss rate for overall accesses
system.l3cache.overall_mshr_miss_rate::.cpu.data            1                       # mshr miss rate for overall accesses
system.l3cache.overall_mshr_miss_rate::total            1                       # mshr miss rate for overall accesses
system.l3cache.ReadExReq_avg_mshr_miss_latency::.cpu.data 70704.884668                       # average ReadExReq mshr miss latency
system.l3cache.ReadExReq_avg_mshr_miss_latency::total 70704.884668                       # average ReadExReq mshr miss latency
system.l3cache.ReadSharedReq_avg_mshr_miss_latency::.cpu.inst 72256.224066                       # average ReadSharedReq mshr miss latency
system.l3cache.ReadSharedReq_avg_mshr_miss_latency::.cpu.data 69950.450450                       # average ReadSharedReq mshr miss latency
system.l3cache.ReadSharedReq_avg_mshr_miss_latency::total 71824.620573                       # average ReadSharedReq mshr miss latency
system.l3cache.demand_avg_mshr_miss_latency::.cpu.inst 72256.224066                       # average overall mshr miss latency
system.l3cache.demand_avg_mshr_miss_latency::.cpu.data 70606.132075                       # average overall mshr miss latency
system.l3cache.demand_avg_mshr_miss_latency::total 71204.135338                       # average overall mshr miss latency
system.l3cache.overall_avg_mshr_miss_latency::.cpu.inst 72256.224066                       # average overall mshr miss latency
system.l3cache.overall_avg_mshr_miss_latency::.cpu.data 70606.132075                       # average overall mshr miss latency
system.l3cache.overall_avg_mshr_miss_latency::total 71204.135338                       # average overall mshr miss latency
system.l3cache.replacements                         0                       # number of replacements
system.membus.snoop_filter.tot_requests          1330                       # Total number of requests made to the snoop filter.
system.membus.snoop_filter.hit_single_requests            0                       # Number of requests hitting in the snoop filter with a single holder of the requested data.
system.membus.snoop_filter.hit_multi_requests            0                       # Number of requests hitting in the snoop filter with multiple (>1) holders of the requested data.
system.membus.snoop_filter.tot_snoops               0                       # Total number of snoops made to the snoop filter.
system.membus.snoop_filter.hit_single_snoops            0                       # Number of snoops hitting in the snoop filter with a single holder of the requested data.
system.membus.snoop_filter.hit_multi_snoops            0                       # Number of snoops hitting in the snoop filter with multiple (>1) holders of the requested data.
system.membus.pwrStateResidencyTicks::UNDEFINED   5315159000                       # Cumulative time (in ticks) in various power states
system.membus.trans_dist::ReadResp                592                       # Transaction distribution
system.membus.trans_dist::ReadExReq               737                       # Transaction distribution
system.membus.trans_dist::ReadExResp              737                       # Transaction distribution
system.membus.trans_dist::ReadSharedReq           593                       # Transaction distribution
system.membus.pkt_count_system.l3cache.mem_side::system.mem_ctrl.port         2659                       # Packet count per connected master and slave (bytes)
system.membus.pkt_count_system.l3cache.mem_side::total         2659                       # Packet count per connected master and slave (bytes)
system.membus.pkt_count::total                   2659                       # Packet count per connected master and slave (bytes)
system.membus.pkt_size_system.l3cache.mem_side::system.mem_ctrl.port        85056                       # Cumulative packet size per connected master and slave (bytes)
system.membus.pkt_size_system.l3cache.mem_side::total        85056                       # Cumulative packet size per connected master and slave (bytes)
system.membus.pkt_size::total                   85056                       # Cumulative packet size per connected master and slave (bytes)
system.membus.snoops                                0                       # Total snoops (count)
system.membus.snoopTraffic                          0                       # Total snoop traffic (bytes)
system.membus.snoop_fanout::samples              1330                       # Request fanout histogram
system.membus.snoop_fanout::mean                    0                       # Request fanout histogram
system.membus.snoop_fanout::stdev                   0                       # Request fanout histogram
system.membus.snoop_fanout::underflows              0      0.00%      0.00% # Request fanout histogram
system.membus.snoop_fanout::0                    1330    100.00%    100.00% # Request fanout histogram
system.membus.snoop_fanout::1                       0      0.00%    100.00% # Request fanout histogram
system.membus.snoop_fanout::overflows               0      0.00%    100.00% # Request fanout histogram
system.membus.snoop_fanout::min_value               0                       # Request fanout histogram
system.membus.snoop_fanout::max_value               0                       # Request fanout histogram
system.membus.snoop_fanout::total                1330                       # Request fanout histogram
system.membus.reqLayer0.occupancy              665000                       # Layer occupancy (ticks)
system.membus.reqLayer0.utilization               0.0                       # Layer utilization (%)
system.membus.respLayer0.occupancy            3620000                       # Layer occupancy (ticks)
system.membus.respLayer0.utilization              0.1                       # Layer utilization (%)

---------- End Simulation Statistics   ----------
